[H]c1c([H])c([H])c(N2C([H])([H])C([H])([H])N(C(=O)C([H])([H])Sc3nnc([H])n3-c3c([H])c([H])c([H])c([H])c3C([H])([H])[H])C([H])([H])C2([H])[H])c([H])c1[H]


 28 31  0  0  0  0  0  0  0  0999 V2000
   38.4980  -19.2517   33.6146 C   0  0  0  0  0  0  0  0  0  0  0  0
   39.8791  -18.8161   33.9003 C   0  0  0  0  0  0  0  0  0  0  0  0
   40.4424  -18.0149   33.1222 O   0  0  0  0  0  0  0  0  0  0  0  0
   40.5762  -19.2860   35.0360 N   0  0  0  0  0  0  0  0  0  0  0  0
   39.9399  -20.2172   35.9173 C   0  0  0  0  0  0  0  0  0  0  0  0
   40.8085  -20.6015   37.0996 C   0  0  0  0  0  0  0  0  0  0  0  0
   41.5202  -19.4613   37.6259 N   0  0  0  0  0  0  0  0  0  0  0  0
   41.8817  -18.3260   36.7791 C   0  0  0  0  0  0  0  0  0  0  0  0
   41.9223  -18.8454   35.3349 C   0  0  0  0  0  0  0  0  0  0  0  0
   41.8865  -19.4351   38.9841 C   0  0  0  0  0  0  0  0  0  0  0  0
   41.1791  -20.1538   39.9143 C   0  0  0  0  0  0  0  0  0  0  0  0
   41.5635  -20.0968   41.2472 C   0  0  0  0  0  0  0  0  0  0  0  0
   42.6379  -19.3380   41.6634 C   0  0  0  0  0  0  0  0  0  0  0  0
   43.3552  -18.6107   40.7251 C   0  0  0  0  0  0  0  0  0  0  0  0
   42.9751  -18.6664   39.4047 C   0  0  0  0  0  0  0  0  0  0  0  0
   37.2749  -18.0458   34.2093 S   0  0  0  0  0  0  0  0  0  0  0  0
   36.0784  -17.8681   36.7575 N   0  0  0  0  0  0  0  0  0  0  0  0
   35.6525  -18.6756   37.7331 C   0  0  0  0  0  0  0  0  0  0  0  0
   35.8804  -19.9338   37.3322 N   0  0  0  0  0  0  0  0  0  0  0  0
   36.4279  -19.8985   36.1509 N   0  0  0  0  0  0  0  0  0  0  0  0
   36.5627  -18.6228   35.7689 C   0  0  0  0  0  0  0  0  0  0  0  0
   33.8573  -16.6732   35.5377 C   0  0  0  0  0  0  0  0  0  0  0  0
   34.9296  -15.8549   36.1755 C   0  0  0  0  0  0  0  0  0  0  0  0
   34.8582  -14.4787   36.1819 C   0  0  0  0  0  0  0  0  0  0  0  0
   35.8716  -13.7409   36.7844 C   0  0  0  0  0  0  0  0  0  0  0  0
   36.9603  -14.3327   37.3847 C   0  0  0  0  0  0  0  0  0  0  0  0
   37.0363  -15.7081   37.3808 C   0  0  0  0  0  0  0  0  0  0  0  0
   36.0188  -16.4469   36.7758 C   0  0  0  0  0  0  0  0  0  0  0  0
 22 23  1  0  0  0
 23 24  2  0  0  0
 24 25  1  0  0  0
 25 26  2  0  0  0
 26 27  1  0  0  0
 27 28  2  0  0  0
 28 17  1  0  0  0
 17 18  1  0  0  0
 18 19  2  0  0  0
 19 20  1  0  0  0
 20 21  2  0  0  0
 21 16  1  0  0  0
 16  1  1  0  0  0
  1  2  1  0  0  0
  2  3  2  0  0  0
  2  4  1  0  0  0
  4  5  1  0  0  0
  5  6  1  0  0  0
  6  7  1  0  0  0
  7 10  1  0  0  0
 10 11  2  0  0  0
 11 12  1  0  0  0
 12 13  2  0  0  0
 13 14  1  0  0  0
 14 15  2  0  0  0
  7  8  1  0  0  0
  8  9  1  0  0  0
 28 23  1  0  0  0
 21 17  1  0  0  0
  9  4  1  0  0  0
 15 10  1  0  0  0
M  END
> <minimizedAffinity>
-7.28753

> <CNNscore>
0.4095508158

> <CNNaffinity>
5.2547769547

> <CNN_VS>
2.1520981789

> <CNNaffinity_variance>
0.5886934996

$$$$
[H]c1c([H])c([H])c(N2C([H])([H])C([H])([H])N(C(=O)C([H])([H])Sc3nnc([H])n3-c3c([H])c([H])c([H])c([H])c3C([H])([H])[H])C([H])([H])C2([H])[H])c([H])c1[H]


 28 31  0  0  0  0  0  0  0  0999 V2000
   39.6281  -21.2216   37.8961 C   0  0  0  0  0  0  0  0  0  0  0  0
   38.1566  -21.1676   37.7920 C   0  0  0  0  0  0  0  0  0  0  0  0
   37.4738  -22.0997   38.2712 O   0  0  0  0  0  0  0  0  0  0  0  0
   37.5053  -20.0833   37.1624 N   0  0  0  0  0  0  0  0  0  0  0  0
   38.2859  -19.0251   36.5971 C   0  0  0  0  0  0  0  0  0  0  0  0
   37.4384  -17.9268   35.9844 C   0  0  0  0  0  0  0  0  0  0  0  0
   36.2838  -17.6327   36.7991 N   0  0  0  0  0  0  0  0  0  0  0  0
   35.6748  -18.6457   37.6592 C   0  0  0  0  0  0  0  0  0  0  0  0
   36.0620  -20.0125   37.0769 C   0  0  0  0  0  0  0  0  0  0  0  0
   35.7180  -16.3449   36.7665 C   0  0  0  0  0  0  0  0  0  0  0  0
   36.2895  -15.3109   37.4639 C   0  0  0  0  0  0  0  0  0  0  0  0
   35.6985  -14.0555   37.4162 C   0  0  0  0  0  0  0  0  0  0  0  0
   34.5521  -13.8177   36.6865 C   0  0  0  0  0  0  0  0  0  0  0  0
   33.9722  -14.8611   35.9800 C   0  0  0  0  0  0  0  0  0  0  0  0
   34.5569  -16.1049   36.0268 C   0  0  0  0  0  0  0  0  0  0  0  0
   40.1674  -22.2750   39.2757 S   0  0  0  0  0  0  0  0  0  0  0  0
   40.6367  -20.6175   41.5093 N   0  0  0  0  0  0  0  0  0  0  0  0
   40.0140  -20.2213   42.6231 C   0  0  0  0  0  0  0  0  0  0  0  0
   38.8110  -20.8116   42.6344 N   0  0  0  0  0  0  0  0  0  0  0  0
   38.7005  -21.5452   41.5638 N   0  0  0  0  0  0  0  0  0  0  0  0
   39.8247  -21.4423   40.8447 C   0  0  0  0  0  0  0  0  0  0  0  0
   42.7680  -22.2441   42.3220 C   0  0  0  0  0  0  0  0  0  0  0  0
   42.9931  -21.0160   41.5052 C   0  0  0  0  0  0  0  0  0  0  0  0
   44.2645  -20.6435   41.1256 C   0  0  0  0  0  0  0  0  0  0  0  0
   44.4450  -19.4942   40.3636 C   0  0  0  0  0  0  0  0  0  0  0  0
   43.3941  -18.6990   39.9646 C   0  0  0  0  0  0  0  0  0  0  0  0
   42.1214  -19.0669   40.3416 C   0  0  0  0  0  0  0  0  0  0  0  0
   41.9419  -20.2203   41.1063 C   0  0  0  0  0  0  0  0  0  0  0  0
 22 23  1  0  0  0
 23 24  2  0  0  0
 24 25  1  0  0  0
 25 26  2  0  0  0
 26 27  1  0  0  0
 27 28  2  0  0  0
 28 17  1  0  0  0
 17 18  1  0  0  0
 18 19  2  0  0  0
 19 20  1  0  0  0
 20 21  2  0  0  0
 21 16  1  0  0  0
 16  1  1  0  0  0
  1  2  1  0  0  0
  2  3  2  0  0  0
  2  4  1  0  0  0
  4  5  1  0  0  0
  5  6  1  0  0  0
  6  7  1  0  0  0
  7 10  1  0  0  0
 10 11  2  0  0  0
 11 12  1  0  0  0
 12 13  2  0  0  0
 13 14  1  0  0  0
 14 15  2  0  0  0
  7  8  1  0  0  0
  8  9  1  0  0  0
 28 23  1  0  0  0
 21 17  1  0  0  0
  9  4  1  0  0  0
 15 10  1  0  0  0
M  END
> <minimizedAffinity>
-5.87003

> <CNNscore>
0.3127338290

> <CNNaffinity>
4.8697786331

> <CNN_VS>
1.5229445696

> <CNNaffinity_variance>
0.3620072901

$$$$
[H]c1c([H])c([H])c(N2C([H])([H])C([H])([H])N(C(=O)C([H])([H])Sc3nnc([H])n3-c3c([H])c([H])c([H])c([H])c3C([H])([H])[H])C([H])([H])C2([H])[H])c([H])c1[H]


 28 31  0  0  0  0  0  0  0  0999 V2000
   36.3815  -20.5846   38.6103 C   0  0  0  0  0  0  0  0  0  0  0  0
   35.3817  -21.3762   39.3538 C   0  0  0  0  0  0  0  0  0  0  0  0
   35.1656  -21.1152   40.5579 O   0  0  0  0  0  0  0  0  0  0  0  0
   34.6641  -22.4220   38.7311 N   0  0  0  0  0  0  0  0  0  0  0  0
   34.9235  -22.7342   37.3586 C   0  0  0  0  0  0  0  0  0  0  0  0
   34.0540  -23.8602   36.8332 C   0  0  0  0  0  0  0  0  0  0  0  0
   32.6987  -23.7524   37.3180 N   0  0  0  0  0  0  0  0  0  0  0  0
   32.3907  -23.1130   38.5959 C   0  0  0  0  0  0  0  0  0  0  0  0
   33.6659  -23.1874   39.4476 C   0  0  0  0  0  0  0  0  0  0  0  0
   31.6415  -24.2790   36.5534 C   0  0  0  0  0  0  0  0  0  0  0  0
   30.6182  -24.9677   37.1540 C   0  0  0  0  0  0  0  0  0  0  0  0
   29.5962  -25.4814   36.3671 C   0  0  0  0  0  0  0  0  0  0  0  0
   29.5799  -25.3185   34.9972 C   0  0  0  0  0  0  0  0  0  0  0  0
   30.6130  -24.6222   34.3873 C   0  0  0  0  0  0  0  0  0  0  0  0
   31.6257  -24.1132   35.1660 C   0  0  0  0  0  0  0  0  0  0  0  0
   35.6761  -19.0343   37.9756 S   0  0  0  0  0  0  0  0  0  0  0  0
   36.4177  -17.4910   35.7340 N   0  0  0  0  0  0  0  0  0  0  0  0
   36.9967  -17.6540   34.5409 C   0  0  0  0  0  0  0  0  0  0  0  0
   37.2999  -18.9540   34.4233 N   0  0  0  0  0  0  0  0  0  0  0  0
   36.9191  -19.5671   35.5076 N   0  0  0  0  0  0  0  0  0  0  0  0
   36.3658  -18.6782   36.3415 C   0  0  0  0  0  0  0  0  0  0  0  0
   33.7274  -16.8619   35.2700 C   0  0  0  0  0  0  0  0  0  0  0  0
   34.6215  -15.9432   36.0334 C   0  0  0  0  0  0  0  0  0  0  0  0
   34.1468  -14.7505   36.5345 C   0  0  0  0  0  0  0  0  0  0  0  0
   35.0023  -13.9138   37.2431 C   0  0  0  0  0  0  0  0  0  0  0  0
   36.3234  -14.2282   37.4706 C   0  0  0  0  0  0  0  0  0  0  0  0
   36.8028  -15.4193   36.9716 C   0  0  0  0  0  0  0  0  0  0  0  0
   35.9431  -16.2577   36.2608 C   0  0  0  0  0  0  0  0  0  0  0  0
 22 23  1  0  0  0
 23 24  2  0  0  0
 24 25  1  0  0  0
 25 26  2  0  0  0
 26 27  1  0  0  0
 27 28  2  0  0  0
 28 17  1  0  0  0
 17 18  1  0  0  0
 18 19  2  0  0  0
 19 20  1  0  0  0
 20 21  2  0  0  0
 21 16  1  0  0  0
 16  1  1  0  0  0
  1  2  1  0  0  0
  2  3  2  0  0  0
  2  4  1  0  0  0
  4  5  1  0  0  0
  5  6  1  0  0  0
  6  7  1  0  0  0
  7 10  1  0  0  0
 10 11  2  0  0  0
 11 12  1  0  0  0
 12 13  2  0  0  0
 13 14  1  0  0  0
 14 15  2  0  0  0
  7  8  1  0  0  0
  8  9  1  0  0  0
 28 23  1  0  0  0
 21 17  1  0  0  0
  9  4  1  0  0  0
 15 10  1  0  0  0
M  END
> <minimizedAffinity>
-5.61517

> <CNNscore>
0.3120374084

> <CNNaffinity>
4.6208081245

> <CNN_VS>
1.4418649673

> <CNNaffinity_variance>
0.4136912227

$$$$
[H]c1c([H])c([H])c(N2C([H])([H])C([H])([H])N(C(=O)C([H])([H])Sc3nnc([H])n3-c3c([H])c([H])c([H])c([H])c3C([H])([H])[H])C([H])([H])C2([H])[H])c([H])c1[H]


 28 31  0  0  0  0  0  0  0  0999 V2000
   33.3459  -18.5569   34.0783 C   0  0  0  0  0  0  0  0  0  0  0  0
   32.7285  -19.0321   35.3320 C   0  0  0  0  0  0  0  0  0  0  0  0
   32.5919  -18.2367   36.2877 O   0  0  0  0  0  0  0  0  0  0  0  0
   32.2883  -20.3673   35.4725 N   0  0  0  0  0  0  0  0  0  0  0  0
   32.4607  -21.2836   34.3866 C   0  0  0  0  0  0  0  0  0  0  0  0
   31.9128  -22.6657   34.6857 C   0  0  0  0  0  0  0  0  0  0  0  0
   30.6572  -22.5951   35.3941 N   0  0  0  0  0  0  0  0  0  0  0  0
   30.3288  -21.4645   36.2606 C   0  0  0  0  0  0  0  0  0  0  0  0
   31.6610  -20.8342   36.6908 C   0  0  0  0  0  0  0  0  0  0  0  0
   29.7224  -23.6381   35.2606 C   0  0  0  0  0  0  0  0  0  0  0  0
   28.4413  -23.4949   35.7301 C   0  0  0  0  0  0  0  0  0  0  0  0
   27.5483  -24.5486   35.5895 C   0  0  0  0  0  0  0  0  0  0  0  0
   27.9125  -25.7366   34.9901 C   0  0  0  0  0  0  0  0  0  0  0  0
   29.2070  -25.8842   34.5140 C   0  0  0  0  0  0  0  0  0  0  0  0
   30.0922  -24.8410   34.6531 C   0  0  0  0  0  0  0  0  0  0  0  0
   35.1575  -18.4821   34.2060 S   0  0  0  0  0  0  0  0  0  0  0  0
   36.0837  -17.6236   36.7283 N   0  0  0  0  0  0  0  0  0  0  0  0
   36.3065  -16.4841   37.3895 C   0  0  0  0  0  0  0  0  0  0  0  0
   35.9812  -15.4790   36.5650 N   0  0  0  0  0  0  0  0  0  0  0  0
   35.5724  -15.9855   35.4368 N   0  0  0  0  0  0  0  0  0  0  0  0
   35.6262  -17.3208   35.5116 C   0  0  0  0  0  0  0  0  0  0  0  0
   38.5957  -18.7699   36.2547 C   0  0  0  0  0  0  0  0  0  0  0  0
   37.5356  -19.5011   37.0082 C   0  0  0  0  0  0  0  0  0  0  0  0
   37.7629  -20.7701   37.4950 C   0  0  0  0  0  0  0  0  0  0  0  0
   36.7570  -21.4280   38.1947 C   0  0  0  0  0  0  0  0  0  0  0  0
   35.5246  -20.8597   38.4270 C   0  0  0  0  0  0  0  0  0  0  0  0
   35.2924  -19.5914   37.9423 C   0  0  0  0  0  0  0  0  0  0  0  0
   36.3026  -18.9326   37.2404 C   0  0  0  0  0  0  0  0  0  0  0  0
 22 23  1  0  0  0
 23 24  2  0  0  0
 24 25  1  0  0  0
 25 26  2  0  0  0
 26 27  1  0  0  0
 27 28  2  0  0  0
 28 17  1  0  0  0
 17 18  1  0  0  0
 18 19  2  0  0  0
 19 20  1  0  0  0
 20 21  2  0  0  0
 21 16  1  0  0  0
 16  1  1  0  0  0
  1  2  1  0  0  0
  2  3  2  0  0  0
  2  4  1  0  0  0
  4  5  1  0  0  0
  5  6  1  0  0  0
  6  7  1  0  0  0
  7 10  1  0  0  0
 10 11  2  0  0  0
 11 12  1  0  0  0
 12 13  2  0  0  0
 13 14  1  0  0  0
 14 15  2  0  0  0
  7  8  1  0  0  0
  8  9  1  0  0  0
 28 23  1  0  0  0
 21 17  1  0  0  0
  9  4  1  0  0  0
 15 10  1  0  0  0
M  END
> <minimizedAffinity>
-5.57622

> <CNNscore>
0.2799291909

> <CNNaffinity>
4.6612906456

> <CNN_VS>
1.3048312664

> <CNNaffinity_variance>
0.4948367178

$$$$
[H]c1c([H])c([H])c(N2C([H])([H])C([H])([H])N(C(=O)C([H])([H])Sc3nnc([H])n3-c3c([H])c([H])c([H])c([H])c3C([H])([H])[H])C([H])([H])C2([H])[H])c([H])c1[H]


 28 31  0  0  0  0  0  0  0  0999 V2000
   33.0835  -18.5230   34.0993 C   0  0  0  0  0  0  0  0  0  0  0  0
   33.9268  -17.5849   34.8658 C   0  0  0  0  0  0  0  0  0  0  0  0
   33.4082  -16.5613   35.3638 O   0  0  0  0  0  0  0  0  0  0  0  0
   35.3078  -17.8215   35.0482 N   0  0  0  0  0  0  0  0  0  0  0  0
   35.9066  -18.9826   34.4633 C   0  0  0  0  0  0  0  0  0  0  0  0
   37.3860  -19.1056   34.7737 C   0  0  0  0  0  0  0  0  0  0  0  0
   37.6716  -18.7422   36.1411 N   0  0  0  0  0  0  0  0  0  0  0  0
   36.8385  -17.7877   36.8704 C   0  0  0  0  0  0  0  0  0  0  0  0
   36.1363  -16.9179   35.8181 C   0  0  0  0  0  0  0  0  0  0  0  0
   38.7810  -19.3088   36.7952 C   0  0  0  0  0  0  0  0  0  0  0  0
   38.6105  -20.2748   37.7543 C   0  0  0  0  0  0  0  0  0  0  0  0
   39.7276  -20.8048   38.3857 C   0  0  0  0  0  0  0  0  0  0  0  0
   41.0056  -20.3879   38.0756 C   0  0  0  0  0  0  0  0  0  0  0  0
   41.1812  -19.4116   37.1059 C   0  0  0  0  0  0  0  0  0  0  0  0
   40.0752  -18.8860   36.4802 C   0  0  0  0  0  0  0  0  0  0  0  0
   31.7222  -19.1824   35.1072 S   0  0  0  0  0  0  0  0  0  0  0  0
   31.8343  -21.3195   36.9447 N   0  0  0  0  0  0  0  0  0  0  0  0
   32.6427  -21.7923   37.8977 C   0  0  0  0  0  0  0  0  0  0  0  0
   33.7033  -20.9753   37.9571 N   0  0  0  0  0  0  0  0  0  0  0  0
   33.5497  -20.0334   37.0708 N   0  0  0  0  0  0  0  0  0  0  0  0
   32.3927  -20.2241   36.4255 C   0  0  0  0  0  0  0  0  0  0  0  0
   31.9330  -23.4236   35.0976 C   0  0  0  0  0  0  0  0  0  0  0  0
   30.6364  -22.9276   35.6444 C   0  0  0  0  0  0  0  0  0  0  0  0
   29.4423  -23.4932   35.2530 C   0  0  0  0  0  0  0  0  0  0  0  0
   28.2486  -23.0113   35.7795 C   0  0  0  0  0  0  0  0  0  0  0  0
   28.2051  -21.9784   36.6888 C   0  0  0  0  0  0  0  0  0  0  0  0
   29.3961  -21.4095   37.0831 C   0  0  0  0  0  0  0  0  0  0  0  0
   30.5929  -21.8941   36.5539 C   0  0  0  0  0  0  0  0  0  0  0  0
 22 23  1  0  0  0
 23 24  2  0  0  0
 24 25  1  0  0  0
 25 26  2  0  0  0
 26 27  1  0  0  0
 27 28  2  0  0  0
 28 17  1  0  0  0
 17 18  1  0  0  0
 18 19  2  0  0  0
 19 20  1  0  0  0
 20 21  2  0  0  0
 21 16  1  0  0  0
 16  1  1  0  0  0
  1  2  1  0  0  0
  2  3  2  0  0  0
  2  4  1  0  0  0
  4  5  1  0  0  0
  5  6  1  0  0  0
  6  7  1  0  0  0
  7 10  1  0  0  0
 10 11  2  0  0  0
 11 12  1  0  0  0
 12 13  2  0  0  0
 13 14  1  0  0  0
 14 15  2  0  0  0
  7  8  1  0  0  0
  8  9  1  0  0  0
 28 23  1  0  0  0
 21 17  1  0  0  0
  9  4  1  0  0  0
 15 10  1  0  0  0
M  END
> <minimizedAffinity>
-6.11237

> <CNNscore>
0.2664763927

> <CNNaffinity>
4.7826929092

> <CNN_VS>
1.2744747400

> <CNNaffinity_variance>
0.5172775984

$$$$
[H]c1c([H])c([H])c(N2C([H])([H])C([H])([H])N(C(=O)C([H])([H])Sc3nnc([H])n3-c3c([H])c([H])c([H])c([H])c3C([H])([H])[H])C([H])([H])C2([H])[H])c([H])c1[H]


 28 31  0  0  0  0  0  0  0  0999 V2000
   35.1562  -17.5605   35.5711 C   0  0  0  0  0  0  0  0  0  0  0  0
   34.7694  -18.6242   34.6235 C   0  0  0  0  0  0  0  0  0  0  0  0
   35.6272  -19.0892   33.8408 O   0  0  0  0  0  0  0  0  0  0  0  0
   33.4496  -19.1271   34.5845 N   0  0  0  0  0  0  0  0  0  0  0  0
   32.4623  -18.5831   35.4666 C   0  0  0  0  0  0  0  0  0  0  0  0
   31.1070  -19.2477   35.3198 C   0  0  0  0  0  0  0  0  0  0  0  0
   31.2334  -20.6756   35.1509 N   0  0  0  0  0  0  0  0  0  0  0  0
   32.4212  -21.2731   34.5433 C   0  0  0  0  0  0  0  0  0  0  0  0
   33.0688  -20.1860   33.6738 C   0  0  0  0  0  0  0  0  0  0  0  0
   30.1907  -21.5217   35.5707 C   0  0  0  0  0  0  0  0  0  0  0  0
   29.1181  -21.0205   36.2639 C   0  0  0  0  0  0  0  0  0  0  0  0
   28.1120  -21.8865   36.6705 C   0  0  0  0  0  0  0  0  0  0  0  0
   28.1597  -23.2379   36.3968 C   0  0  0  0  0  0  0  0  0  0  0  0
   29.2428  -23.7474   35.6958 C   0  0  0  0  0  0  0  0  0  0  0  0
   30.2399  -22.8903   35.2928 C   0  0  0  0  0  0  0  0  0  0  0  0
   36.9491  -17.5435   35.8692 S   0  0  0  0  0  0  0  0  0  0  0  0
   38.4674  -19.8733   36.3417 N   0  0  0  0  0  0  0  0  0  0  0  0
   38.4897  -20.9129   37.1808 C   0  0  0  0  0  0  0  0  0  0  0  0
   37.4696  -20.7529   38.0350 N   0  0  0  0  0  0  0  0  0  0  0  0
   36.8431  -19.6526   37.7294 N   0  0  0  0  0  0  0  0  0  0  0  0
   37.4445  -19.0844   36.6772 C   0  0  0  0  0  0  0  0  0  0  0  0
   40.9032  -18.6530   36.9946 C   0  0  0  0  0  0  0  0  0  0  0  0
   40.5820  -19.0496   35.5926 C   0  0  0  0  0  0  0  0  0  0  0  0
   41.4799  -18.8244   34.5717 C   0  0  0  0  0  0  0  0  0  0  0  0
   41.1545  -19.2050   33.2742 C   0  0  0  0  0  0  0  0  0  0  0  0
   39.9570  -19.8065   32.9583 C   0  0  0  0  0  0  0  0  0  0  0  0
   39.0560  -20.0337   33.9753 C   0  0  0  0  0  0  0  0  0  0  0  0
   39.3839  -19.6511   35.2766 C   0  0  0  0  0  0  0  0  0  0  0  0
 22 23  1  0  0  0
 23 24  2  0  0  0
 24 25  1  0  0  0
 25 26  2  0  0  0
 26 27  1  0  0  0
 27 28  2  0  0  0
 28 17  1  0  0  0
 17 18  1  0  0  0
 18 19  2  0  0  0
 19 20  1  0  0  0
 20 21  2  0  0  0
 21 16  1  0  0  0
 16  1  1  0  0  0
  1  2  1  0  0  0
  2  3  2  0  0  0
  2  4  1  0  0  0
  4  5  1  0  0  0
  5  6  1  0  0  0
  6  7  1  0  0  0
  7 10  1  0  0  0
 10 11  2  0  0  0
 11 12  1  0  0  0
 12 13  2  0  0  0
 13 14  1  0  0  0
 14 15  2  0  0  0
  7  8  1  0  0  0
  8  9  1  0  0  0
 28 23  1  0  0  0
 21 17  1  0  0  0
  9  4  1  0  0  0
 15 10  1  0  0  0
M  END
> <minimizedAffinity>
-6.20806

> <CNNscore>
0.2631044686

> <CNNaffinity>
4.6363296509

> <CNN_VS>
1.2198390961

> <CNNaffinity_variance>
0.5803016424

$$$$
[H]c1c([H])c([H])c(N2C([H])([H])C([H])([H])N(C(=O)C([H])([H])Sc3nnc([H])n3-c3c([H])c([H])c([H])c([H])c3C([H])([H])[H])C([H])([H])C2([H])[H])c([H])c1[H]


 28 31  0  0  0  0  0  0  0  0999 V2000
   35.5506  -20.9676   37.9078 C   0  0  0  0  0  0  0  0  0  0  0  0
   36.7662  -21.7913   37.7565 C   0  0  0  0  0  0  0  0  0  0  0  0
   36.9679  -22.3940   36.6792 O   0  0  0  0  0  0  0  0  0  0  0  0
   37.7060  -21.9109   38.8048 N   0  0  0  0  0  0  0  0  0  0  0  0
   37.4674  -21.2369   40.0448 C   0  0  0  0  0  0  0  0  0  0  0  0
   38.5802  -21.4435   41.0542 C   0  0  0  0  0  0  0  0  0  0  0  0
   39.8795  -21.3898   40.4278 N   0  0  0  0  0  0  0  0  0  0  0  0
   40.0709  -21.7631   39.0275 C   0  0  0  0  0  0  0  0  0  0  0  0
   38.9115  -22.6982   38.6555 C   0  0  0  0  0  0  0  0  0  0  0  0
   40.9971  -20.9770   41.1761 C   0  0  0  0  0  0  0  0  0  0  0  0
   41.2760  -19.6439   41.3411 C   0  0  0  0  0  0  0  0  0  0  0  0
   42.3927  -19.2733   42.0781 C   0  0  0  0  0  0  0  0  0  0  0  0
   43.2305  -20.2082   42.6504 C   0  0  0  0  0  0  0  0  0  0  0  0
   42.9508  -21.5568   42.4856 C   0  0  0  0  0  0  0  0  0  0  0  0
   41.8450  -21.9247   41.7556 C   0  0  0  0  0  0  0  0  0  0  0  0
   35.9260  -19.1912   37.8230 S   0  0  0  0  0  0  0  0  0  0  0  0
   36.3855  -17.5264   35.5928 N   0  0  0  0  0  0  0  0  0  0  0  0
   36.7819  -17.6266   34.3208 C   0  0  0  0  0  0  0  0  0  0  0  0
   37.0245  -18.9230   34.0836 N   0  0  0  0  0  0  0  0  0  0  0  0
   36.7846  -19.5946   35.1735 N   0  0  0  0  0  0  0  0  0  0  0  0
   36.3846  -18.7481   36.1301 C   0  0  0  0  0  0  0  0  0  0  0  0
   33.7332  -16.6642   35.3269 C   0  0  0  0  0  0  0  0  0  0  0  0
   34.7275  -15.8897   36.1255 C   0  0  0  0  0  0  0  0  0  0  0  0
   34.3676  -14.7197   36.7584 C   0  0  0  0  0  0  0  0  0  0  0  0
   35.3148  -14.0185   37.4968 C   0  0  0  0  0  0  0  0  0  0  0  0
   36.6167  -14.4473   37.6266 C   0  0  0  0  0  0  0  0  0  0  0  0
   36.9815  -15.6162   36.9957 C   0  0  0  0  0  0  0  0  0  0  0  0
   36.0300  -16.3185   36.2551 C   0  0  0  0  0  0  0  0  0  0  0  0
 22 23  1  0  0  0
 23 24  2  0  0  0
 24 25  1  0  0  0
 25 26  2  0  0  0
 26 27  1  0  0  0
 27 28  2  0  0  0
 28 17  1  0  0  0
 17 18  1  0  0  0
 18 19  2  0  0  0
 19 20  1  0  0  0
 20 21  2  0  0  0
 21 16  1  0  0  0
 16  1  1  0  0  0
  1  2  1  0  0  0
  2  3  2  0  0  0
  2  4  1  0  0  0
  4  5  1  0  0  0
  5  6  1  0  0  0
  6  7  1  0  0  0
  7 10  1  0  0  0
 10 11  2  0  0  0
 11 12  1  0  0  0
 12 13  2  0  0  0
 13 14  1  0  0  0
 14 15  2  0  0  0
  7  8  1  0  0  0
  8  9  1  0  0  0
 28 23  1  0  0  0
 21 17  1  0  0  0
  9  4  1  0  0  0
 15 10  1  0  0  0
M  END
> <minimizedAffinity>
-5.73099

> <CNNscore>
0.2449252903

> <CNNaffinity>
4.6168031693

> <CNN_VS>
1.1307718754

> <CNNaffinity_variance>
0.6608079076

$$$$
[H]c1c([H])c([H])c(N2C([H])([H])C([H])([H])N(C(=O)C([H])([H])Sc3nnc([H])n3-c3c([H])c([H])c([H])c([H])c3C([H])([H])[H])C([H])([H])C2([H])[H])c([H])c1[H]


 28 31  0  0  0  0  0  0  0  0999 V2000
   33.2228  -21.5179   35.5720 C   0  0  0  0  0  0  0  0  0  0  0  0
   32.8226  -20.2185   34.9974 C   0  0  0  0  0  0  0  0  0  0  0  0
   31.6743  -20.0877   34.5187 O   0  0  0  0  0  0  0  0  0  0  0  0
   33.7112  -19.1201   34.9786 N   0  0  0  0  0  0  0  0  0  0  0  0
   35.0317  -19.2735   35.5091 C   0  0  0  0  0  0  0  0  0  0  0  0
   35.8492  -17.9981   35.4395 C   0  0  0  0  0  0  0  0  0  0  0  0
   35.0538  -16.8409   35.7737 N   0  0  0  0  0  0  0  0  0  0  0  0
   33.6110  -16.8096   35.5408 C   0  0  0  0  0  0  0  0  0  0  0  0
   33.3178  -17.8363   34.4376 C   0  0  0  0  0  0  0  0  0  0  0  0
   35.6733  -15.7070   36.3306 C   0  0  0  0  0  0  0  0  0  0  0  0
   36.7223  -15.8403   37.2047 C   0  0  0  0  0  0  0  0  0  0  0  0
   37.3033  -14.6996   37.7420 C   0  0  0  0  0  0  0  0  0  0  0  0
   36.8559  -13.4345   37.4213 C   0  0  0  0  0  0  0  0  0  0  0  0
   35.7958  -13.2966   36.5375 C   0  0  0  0  0  0  0  0  0  0  0  0
   35.2196  -14.4260   36.0050 C   0  0  0  0  0  0  0  0  0  0  0  0
   32.7499  -21.6547   37.3217 S   0  0  0  0  0  0  0  0  0  0  0  0
   31.1607  -23.9513   37.7180 N   0  0  0  0  0  0  0  0  0  0  0  0
   31.3053  -25.2333   38.0656 C   0  0  0  0  0  0  0  0  0  0  0  0
   32.6127  -25.4411   38.2738 N   0  0  0  0  0  0  0  0  0  0  0  0
   33.2478  -24.3240   38.0614 N   0  0  0  0  0  0  0  0  0  0  0  0
   32.3664  -23.3787   37.7135 C   0  0  0  0  0  0  0  0  0  0  0  0
   30.4083  -23.8970   35.0200 C   0  0  0  0  0  0  0  0  0  0  0  0
   29.5551  -23.2830   36.0789 C   0  0  0  0  0  0  0  0  0  0  0  0
   28.3652  -22.6665   35.7578 C   0  0  0  0  0  0  0  0  0  0  0  0
   27.5895  -22.1032   36.7653 C   0  0  0  0  0  0  0  0  0  0  0  0
   27.9623  -22.1342   38.0903 C   0  0  0  0  0  0  0  0  0  0  0  0
   29.1510  -22.7492   38.4165 C   0  0  0  0  0  0  0  0  0  0  0  0
   29.9282  -23.3139   37.4044 C   0  0  0  0  0  0  0  0  0  0  0  0
 22 23  1  0  0  0
 23 24  2  0  0  0
 24 25  1  0  0  0
 25 26  2  0  0  0
 26 27  1  0  0  0
 27 28  2  0  0  0
 28 17  1  0  0  0
 17 18  1  0  0  0
 18 19  2  0  0  0
 19 20  1  0  0  0
 20 21  2  0  0  0
 21 16  1  0  0  0
 16  1  1  0  0  0
  1  2  1  0  0  0
  2  3  2  0  0  0
  2  4  1  0  0  0
  4  5  1  0  0  0
  5  6  1  0  0  0
  6  7  1  0  0  0
  7 10  1  0  0  0
 10 11  2  0  0  0
 11 12  1  0  0  0
 12 13  2  0  0  0
 13 14  1  0  0  0
 14 15  2  0  0  0
  7  8  1  0  0  0
  8  9  1  0  0  0
 28 23  1  0  0  0
 21 17  1  0  0  0
  9  4  1  0  0  0
 15 10  1  0  0  0
M  END
> <minimizedAffinity>
-6.11830

> <CNNscore>
0.2430665493

> <CNNaffinity>
4.7664837837

> <CNN_VS>
1.1585727930

> <CNNaffinity_variance>
0.4175573289

$$$$
[H]c1c([H])c([H])c(N2C([H])([H])C([H])([H])N(C(=O)C([H])([H])Sc3nnc([H])n3-c3c([H])c([H])c([H])c([H])c3C([H])([H])[H])C([H])([H])C2([H])[H])c([H])c1[H]


 28 31  0  0  0  0  0  0  0  0999 V2000
   33.0855  -21.6268   35.8968 C   0  0  0  0  0  0  0  0  0  0  0  0
   32.8756  -20.4146   35.0810 C   0  0  0  0  0  0  0  0  0  0  0  0
   31.8595  -20.3322   34.3561 O   0  0  0  0  0  0  0  0  0  0  0  0
   33.7996  -19.3460   35.1042 N   0  0  0  0  0  0  0  0  0  0  0  0
   34.9722  -19.4466   35.9190 C   0  0  0  0  0  0  0  0  0  0  0  0
   35.8458  -18.2086   35.8541 C   0  0  0  0  0  0  0  0  0  0  0  0
   35.0540  -17.0018   35.8531 N   0  0  0  0  0  0  0  0  0  0  0  0
   33.6944  -16.9779   35.3168 C   0  0  0  0  0  0  0  0  0  0  0  0
   33.5887  -18.1447   34.3246 C   0  0  0  0  0  0  0  0  0  0  0  0
   35.5971  -15.8119   36.3715 C   0  0  0  0  0  0  0  0  0  0  0  0
   35.0928  -14.5914   35.9994 C   0  0  0  0  0  0  0  0  0  0  0  0
   35.6597  -13.4377   36.5239 C   0  0  0  0  0  0  0  0  0  0  0  0
   36.7162  -13.4834   37.4099 C   0  0  0  0  0  0  0  0  0  0  0  0
   37.2278  -14.7159   37.7883 C   0  0  0  0  0  0  0  0  0  0  0  0
   36.6671  -15.8592   37.2691 C   0  0  0  0  0  0  0  0  0  0  0  0
   31.7064  -21.9124   37.0458 S   0  0  0  0  0  0  0  0  0  0  0  0
   29.1763  -23.0475   36.5295 N   0  0  0  0  0  0  0  0  0  0  0  0
   28.6279  -23.9828   35.7485 C   0  0  0  0  0  0  0  0  0  0  0  0
   29.6137  -24.5051   35.0061 N   0  0  0  0  0  0  0  0  0  0  0  0
   30.7287  -23.9102   35.3218 N   0  0  0  0  0  0  0  0  0  0  0  0
   30.4844  -22.9970   36.2693 C   0  0  0  0  0  0  0  0  0  0  0  0
   28.8299  -24.1135   39.0971 C   0  0  0  0  0  0  0  0  0  0  0  0
   28.3026  -22.7653   38.7360 C   0  0  0  0  0  0  0  0  0  0  0  0
   27.6245  -22.0012   39.6609 C   0  0  0  0  0  0  0  0  0  0  0  0
   27.1445  -20.7477   39.2971 C   0  0  0  0  0  0  0  0  0  0  0  0
   27.3190  -20.2269   38.0345 C   0  0  0  0  0  0  0  0  0  0  0  0
   27.9961  -20.9869   37.1063 C   0  0  0  0  0  0  0  0  0  0  0  0
   28.4770  -22.2445   37.4728 C   0  0  0  0  0  0  0  0  0  0  0  0
 22 23  1  0  0  0
 23 24  2  0  0  0
 24 25  1  0  0  0
 25 26  2  0  0  0
 26 27  1  0  0  0
 27 28  2  0  0  0
 28 17  1  0  0  0
 17 18  1  0  0  0
 18 19  2  0  0  0
 19 20  1  0  0  0
 20 21  2  0  0  0
 21 16  1  0  0  0
 16  1  1  0  0  0
  1  2  1  0  0  0
  2  3  2  0  0  0
  2  4  1  0  0  0
  4  5  1  0  0  0
  5  6  1  0  0  0
  6  7  1  0  0  0
  7 10  1  0  0  0
 10 11  2  0  0  0
 11 12  1  0  0  0
 12 13  2  0  0  0
 13 14  1  0  0  0
 14 15  2  0  0  0
  7  8  1  0  0  0
  8  9  1  0  0  0
 28 23  1  0  0  0
 21 17  1  0  0  0
  9  4  1  0  0  0
 15 10  1  0  0  0
M  END
> <minimizedAffinity>
-6.66756

> <CNNscore>
0.2422316223

> <CNNaffinity>
4.6812987328

> <CNN_VS>
1.1339585781

> <CNNaffinity_variance>
0.5543404818

$$$$
[H]OC(C([H])([H])[H])(C([H])([H])[H])C([H])([H])C([H])([H])N([H])S(=O)(=O)c1c([H])c([H])c(C([H])([H])[H])c(-c2c([H])nc(N([H])[H])c(-c3onc(C([H])([H])[H])c3[H])c2[H])c1[H]


 34 36  0  0  0  0  0  0  0  0999 V2000
   31.4146  -20.5809   35.8620 C   0  0  0  0  0  0  0  0  0  0  0  0
   31.5665  -21.5955   36.8145 C   0  0  0  0  0  0  0  0  0  0  0  0
   30.4799  -22.1954   37.4154 C   0  0  0  0  0  0  0  0  0  0  0  0
   29.2060  -21.8065   37.0893 C   0  0  0  0  0  0  0  0  0  0  0  0
   29.0291  -20.8103   36.1543 C   0  0  0  0  0  0  0  0  0  0  0  0
   30.1415  -20.2009   35.5432 C   0  0  0  0  0  0  0  0  0  0  0  0
   29.9223  -19.1410   34.5229 C   0  0  0  0  0  0  0  0  0  0  0  0
   34.2111  -18.2069   35.2128 C   0  0  0  0  0  0  0  0  0  0  0  0
   33.1030  -18.8094   35.8260 C   0  0  0  0  0  0  0  0  0  0  0  0
   32.5787  -19.9482   35.2522 C   0  0  0  0  0  0  0  0  0  0  0  0
   33.1693  -20.4383   34.1037 C   0  0  0  0  0  0  0  0  0  0  0  0
   34.2261  -19.8520   33.5310 N   0  0  0  0  0  0  0  0  0  0  0  0
   34.7565  -18.7252   34.0863 C   0  0  0  0  0  0  0  0  0  0  0  0
   35.8719  -18.1396   33.4484 N   0  0  0  0  0  0  0  0  0  0  0  0
   35.7922  -17.4175   32.6956 H   0  0  0  0  0  0  0  0  0  0  0  0
   36.8308  -18.4187   33.7176 H   0  0  0  0  0  0  0  0  0  0  0  0
   36.8994  -14.8166   37.8642 C   0  0  0  0  0  0  0  0  0  0  0  0
   35.8656  -15.4896   37.0211 C   0  0  0  0  0  0  0  0  0  0  0  0
   35.8419  -16.8414   36.6275 C   0  0  0  0  0  0  0  0  0  0  0  0
   34.7208  -16.9981   35.8741 C   0  0  0  0  0  0  0  0  0  0  0  0
   34.1075  -15.8235   35.8147 O   0  0  0  0  0  0  0  0  0  0  0  0
   34.7688  -14.9566   36.4760 N   0  0  0  0  0  0  0  0  0  0  0  0
   30.7387  -23.4690   38.6090 S   0  0  0  0  0  0  0  0  0  0  0  0
   29.4021  -23.7294   39.2651 O   0  0  0  0  0  0  0  0  0  0  0  0
   31.2636  -24.6822   37.9266 O   0  0  0  0  0  0  0  0  0  0  0  0
   31.7911  -22.8554   39.8008 N   0  0  0  0  0  0  0  0  0  0  0  0
   31.4449  -23.2194   40.7367 H   0  0  0  0  0  0  0  0  0  0  0  0
   33.1666  -23.2618   39.5964 C   0  0  0  0  0  0  0  0  0  0  0  0
   34.0717  -22.7984   40.6911 C   0  0  0  0  0  0  0  0  0  0  0  0
   34.4585  -21.3618   40.5780 C   0  0  0  0  0  0  0  0  0  0  0  0
   35.7385  -20.9961   41.2572 C   0  0  0  0  0  0  0  0  0  0  0  0
   34.5616  -20.9953   39.1174 C   0  0  0  0  0  0  0  0  0  0  0  0
   33.4444  -20.5714   41.1225 O   0  0  0  0  0  0  0  0  0  0  0  0
   33.3160  -19.7415   40.6211 H   0  0  0  0  0  0  0  0  0  0  0  0
 17 18  1  0  0  0
 18 19  1  0  0  0
 19 20  2  0  0  0
 20  8  1  0  0  0
  8  9  2  0  0  0
  9 10  1  0  0  0
 10  1  1  0  0  0
  1  2  2  0  0  0
  2  3  1  0  0  0
  3 23  1  0  0  0
 23 24  2  0  0  0
 23 25  2  0  0  0
 23 26  1  0  0  0
 26 28  1  0  0  0
 28 29  1  0  0  0
 29 30  1  0  0  0
 30 31  1  0  0  0
 30 32  1  0  0  0
 30 33  1  0  0  0
  3  4  2  0  0  0
  4  5  1  0  0  0
  5  6  2  0  0  0
  6  7  1  0  0  0
 10 11  2  0  0  0
 11 12  1  0  0  0
 12 13  2  0  0  0
 13 14  1  0  0  0
 20 21  1  0  0  0
 21 22  1  0  0  0
 22 18  2  0  0  0
 13  8  1  0  0  0
  6  1  1  0  0  0
 26 27  1  0  0  0
 33 34  1  0  0  0
 14 15  1  0  0  0
 14 16  1  0  0  0
M  END
> <minimizedAffinity>
-6.47665

> <CNNscore>
0.4772382379

> <CNNaffinity>
5.0199146271

> <CNN_VS>
2.3956952095

> <CNNaffinity_variance>
1.0727531910

$$$$
[H]OC(C([H])([H])[H])(C([H])([H])[H])C([H])([H])C([H])([H])N([H])S(=O)(=O)c1c([H])c([H])c(C([H])([H])[H])c(-c2c([H])nc(N([H])[H])c(-c3onc(C([H])([H])[H])c3[H])c2[H])c1[H]


 34 36  0  0  0  0  0  0  0  0999 V2000
   35.3025  -14.9164   36.8436 C   0  0  0  0  0  0  0  0  0  0  0  0
   34.6312  -15.9651   36.2038 C   0  0  0  0  0  0  0  0  0  0  0  0
   35.2298  -17.1896   35.9948 C   0  0  0  0  0  0  0  0  0  0  0  0
   36.5160  -17.4124   36.4149 C   0  0  0  0  0  0  0  0  0  0  0  0
   37.1987  -16.3967   37.0477 C   0  0  0  0  0  0  0  0  0  0  0  0
   36.5833  -15.1482   37.2592 C   0  0  0  0  0  0  0  0  0  0  0  0
   37.3359  -14.0749   37.9619 C   0  0  0  0  0  0  0  0  0  0  0  0
   32.7406  -12.3315   37.6388 C   0  0  0  0  0  0  0  0  0  0  0  0
   33.3489  -13.5846   37.4760 C   0  0  0  0  0  0  0  0  0  0  0  0
   34.6558  -13.6237   37.0382 C   0  0  0  0  0  0  0  0  0  0  0  0
   35.3000  -12.4290   36.7818 C   0  0  0  0  0  0  0  0  0  0  0  0
   34.7058  -11.2417   36.9422 N   0  0  0  0  0  0  0  0  0  0  0  0
   33.4138  -11.1860   37.3746 C   0  0  0  0  0  0  0  0  0  0  0  0
   32.8263   -9.9114   37.5299 N   0  0  0  0  0  0  0  0  0  0  0  0
   32.3176   -9.4136   36.7632 H   0  0  0  0  0  0  0  0  0  0  0  0
   32.8853   -9.4186   38.4375 H   0  0  0  0  0  0  0  0  0  0  0  0
   28.4395  -13.0734   40.2275 C   0  0  0  0  0  0  0  0  0  0  0  0
   29.4511  -12.6627   39.2075 C   0  0  0  0  0  0  0  0  0  0  0  0
   30.8355  -12.9188   39.2361 C   0  0  0  0  0  0  0  0  0  0  0  0
   31.3485  -12.3597   38.1077 C   0  0  0  0  0  0  0  0  0  0  0  0
   30.3456  -11.8034   37.4414 O   0  0  0  0  0  0  0  0  0  0  0  0
   29.2542  -11.9793   38.0768 N   0  0  0  0  0  0  0  0  0  0  0  0
   34.3295  -18.4711   35.1818 S   0  0  0  0  0  0  0  0  0  0  0  0
   34.8444  -18.5322   33.7620 O   0  0  0  0  0  0  0  0  0  0  0  0
   34.5442  -19.7550   35.9019 O   0  0  0  0  0  0  0  0  0  0  0  0
   32.6939  -17.9959   35.1206 N   0  0  0  0  0  0  0  0  0  0  0  0
   32.6786  -16.9762   34.8237 H   0  0  0  0  0  0  0  0  0  0  0  0
   31.9149  -18.7880   34.1907 C   0  0  0  0  0  0  0  0  0  0  0  0
   30.7285  -19.4285   34.8345 C   0  0  0  0  0  0  0  0  0  0  0  0
   31.0238  -20.7600   35.4397 C   0  0  0  0  0  0  0  0  0  0  0  0
   29.8232  -21.5947   35.7481 C   0  0  0  0  0  0  0  0  0  0  0  0
   31.9264  -21.5324   34.5086 C   0  0  0  0  0  0  0  0  0  0  0  0
   31.7326  -20.5744   36.6283 O   0  0  0  0  0  0  0  0  0  0  0  0
   32.4138  -21.2636   36.7614 H   0  0  0  0  0  0  0  0  0  0  0  0
 17 18  1  0  0  0
 18 19  1  0  0  0
 19 20  2  0  0  0
 20  8  1  0  0  0
  8  9  2  0  0  0
  9 10  1  0  0  0
 10  1  1  0  0  0
  1  2  2  0  0  0
  2  3  1  0  0  0
  3 23  1  0  0  0
 23 24  2  0  0  0
 23 25  2  0  0  0
 23 26  1  0  0  0
 26 28  1  0  0  0
 28 29  1  0  0  0
 29 30  1  0  0  0
 30 31  1  0  0  0
 30 32  1  0  0  0
 30 33  1  0  0  0
  3  4  2  0  0  0
  4  5  1  0  0  0
  5  6  2  0  0  0
  6  7  1  0  0  0
 10 11  2  0  0  0
 11 12  1  0  0  0
 12 13  2  0  0  0
 13 14  1  0  0  0
 20 21  1  0  0  0
 21 22  1  0  0  0
 22 18  2  0  0  0
 13  8  1  0  0  0
  6  1  1  0  0  0
 26 27  1  0  0  0
 33 34  1  0  0  0
 14 15  1  0  0  0
 14 16  1  0  0  0
M  END
> <minimizedAffinity>
-9.20067

> <CNNscore>
0.4704959095

> <CNNaffinity>
6.4809293747

> <CNN_VS>
3.0492508411

> <CNNaffinity_variance>
0.0769384056

$$$$
[H]OC(C([H])([H])[H])(C([H])([H])[H])C([H])([H])C([H])([H])N([H])S(=O)(=O)c1c([H])c([H])c(C([H])([H])[H])c(-c2c([H])nc(N([H])[H])c(-c3onc(C([H])([H])[H])c3[H])c2[H])c1[H]


 34 36  0  0  0  0  0  0  0  0999 V2000
   34.8827  -17.8232   36.2548 C   0  0  0  0  0  0  0  0  0  0  0  0
   35.4719  -18.6351   37.2314 C   0  0  0  0  0  0  0  0  0  0  0  0
   35.2529  -19.9959   37.2726 C   0  0  0  0  0  0  0  0  0  0  0  0
   34.4407  -20.5951   36.3442 C   0  0  0  0  0  0  0  0  0  0  0  0
   33.8489  -19.8184   35.3722 C   0  0  0  0  0  0  0  0  0  0  0  0
   34.0757  -18.4295   35.3339 C   0  0  0  0  0  0  0  0  0  0  0  0
   33.4400  -17.6168   34.2625 C   0  0  0  0  0  0  0  0  0  0  0  0
   34.3851  -14.1600   36.7135 C   0  0  0  0  0  0  0  0  0  0  0  0
   34.1498  -15.5419   36.7535 C   0  0  0  0  0  0  0  0  0  0  0  0
   35.1144  -16.3833   36.2410 C   0  0  0  0  0  0  0  0  0  0  0  0
   36.2625  -15.8246   35.7141 C   0  0  0  0  0  0  0  0  0  0  0  0
   36.4721  -14.5041   35.6835 N   0  0  0  0  0  0  0  0  0  0  0  0
   35.5279  -13.6586   36.1865 C   0  0  0  0  0  0  0  0  0  0  0  0
   35.7909  -12.2723   36.1335 N   0  0  0  0  0  0  0  0  0  0  0  0
   35.5275  -11.6660   35.3227 H   0  0  0  0  0  0  0  0  0  0  0  0
   36.2675  -11.8028   36.9224 H   0  0  0  0  0  0  0  0  0  0  0  0
   30.3695  -11.1423   37.4346 C   0  0  0  0  0  0  0  0  0  0  0  0
   31.5741  -12.0042   37.6312 C   0  0  0  0  0  0  0  0  0  0  0  0
   32.3213  -12.6566   36.6318 C   0  0  0  0  0  0  0  0  0  0  0  0
   33.3189  -13.3198   37.2754 C   0  0  0  0  0  0  0  0  0  0  0  0
   33.1858  -13.0861   38.5743 O   0  0  0  0  0  0  0  0  0  0  0  0
   32.1804  -12.3283   38.7764 N   0  0  0  0  0  0  0  0  0  0  0  0
   36.0253  -20.9641   38.5294 S   0  0  0  0  0  0  0  0  0  0  0  0
   37.5102  -20.6991   38.4328 O   0  0  0  0  0  0  0  0  0  0  0  0
   35.4803  -20.5709   39.8566 O   0  0  0  0  0  0  0  0  0  0  0  0
   35.7654  -22.6055   38.1515 N   0  0  0  0  0  0  0  0  0  0  0  0
   36.7161  -23.0791   38.1583 H   0  0  0  0  0  0  0  0  0  0  0  0
   34.8838  -23.2644   39.0936 C   0  0  0  0  0  0  0  0  0  0  0  0
   33.4774  -23.3557   38.5977 C   0  0  0  0  0  0  0  0  0  0  0  0
   33.1275  -24.6937   38.0375 C   0  0  0  0  0  0  0  0  0  0  0  0
   33.3145  -24.8296   36.5610 C   0  0  0  0  0  0  0  0  0  0  0  0
   33.9558  -25.7476   38.7313 C   0  0  0  0  0  0  0  0  0  0  0  0
   31.7908  -24.9747   38.3270 O   0  0  0  0  0  0  0  0  0  0  0  0
   31.6503  -25.9206   38.5328 H   0  0  0  0  0  0  0  0  0  0  0  0
 17 18  1  0  0  0
 18 19  1  0  0  0
 19 20  2  0  0  0
 20  8  1  0  0  0
  8  9  2  0  0  0
  9 10  1  0  0  0
 10  1  1  0  0  0
  1  2  2  0  0  0
  2  3  1  0  0  0
  3 23  1  0  0  0
 23 24  2  0  0  0
 23 25  2  0  0  0
 23 26  1  0  0  0
 26 28  1  0  0  0
 28 29  1  0  0  0
 29 30  1  0  0  0
 30 31  1  0  0  0
 30 32  1  0  0  0
 30 33  1  0  0  0
  3  4  2  0  0  0
  4  5  1  0  0  0
  5  6  2  0  0  0
  6  7  1  0  0  0
 10 11  2  0  0  0
 11 12  1  0  0  0
 12 13  2  0  0  0
 13 14  1  0  0  0
 20 21  1  0  0  0
 21 22  1  0  0  0
 22 18  2  0  0  0
 13  8  1  0  0  0
  6  1  1  0  0  0
 26 27  1  0  0  0
 33 34  1  0  0  0
 14 15  1  0  0  0
 14 16  1  0  0  0
M  END
> <minimizedAffinity>
-5.99714

> <CNNscore>
0.4531439245

> <CNNaffinity>
5.7541427612

> <CNN_VS>
2.6074547768

> <CNNaffinity_variance>
0.1148194075

$$$$
[H]OC(C([H])([H])[H])(C([H])([H])[H])C([H])([H])C([H])([H])N([H])S(=O)(=O)c1c([H])c([H])c(C([H])([H])[H])c(-c2c([H])nc(N([H])[H])c(-c3onc(C([H])([H])[H])c3[H])c2[H])c1[H]


 34 36  0  0  0  0  0  0  0  0999 V2000
   34.8267  -17.8117   36.1028 C   0  0  0  0  0  0  0  0  0  0  0  0
   35.4536  -18.6688   37.0151 C   0  0  0  0  0  0  0  0  0  0  0  0
   35.2248  -20.0287   37.0084 C   0  0  0  0  0  0  0  0  0  0  0  0
   34.3651  -20.5818   36.0944 C   0  0  0  0  0  0  0  0  0  0  0  0
   33.7355  -19.7601   35.1853 C   0  0  0  0  0  0  0  0  0  0  0  0
   33.9724  -18.3723   35.1957 C   0  0  0  0  0  0  0  0  0  0  0  0
   33.2945  -17.5101   34.1910 C   0  0  0  0  0  0  0  0  0  0  0  0
   34.3566  -14.1625   36.6855 C   0  0  0  0  0  0  0  0  0  0  0  0
   34.1099  -15.5430   36.6769 C   0  0  0  0  0  0  0  0  0  0  0  0
   35.0700  -16.3741   36.1396 C   0  0  0  0  0  0  0  0  0  0  0  0
   36.2249  -15.8070   35.6370 C   0  0  0  0  0  0  0  0  0  0  0  0
   36.4453  -14.4880   35.6527 N   0  0  0  0  0  0  0  0  0  0  0  0
   35.5057  -13.6526   36.1808 C   0  0  0  0  0  0  0  0  0  0  0  0
   35.7801  -12.2675   36.1768 N   0  0  0  0  0  0  0  0  0  0  0  0
   35.5252  -11.6315   35.3862 H   0  0  0  0  0  0  0  0  0  0  0  0
   36.2570  -11.8294   36.9833 H   0  0  0  0  0  0  0  0  0  0  0  0
   30.3635  -11.1370   37.4938 C   0  0  0  0  0  0  0  0  0  0  0  0
   31.5595  -12.0160   37.6655 C   0  0  0  0  0  0  0  0  0  0  0  0
   32.3064  -12.6390   36.6471 C   0  0  0  0  0  0  0  0  0  0  0  0
   33.2947  -13.3334   37.2717 C   0  0  0  0  0  0  0  0  0  0  0  0
   33.1569  -13.1449   38.5774 O   0  0  0  0  0  0  0  0  0  0  0  0
   32.1570  -12.3859   38.8014 N   0  0  0  0  0  0  0  0  0  0  0  0
   36.0464  -21.0552   38.1852 S   0  0  0  0  0  0  0  0  0  0  0  0
   35.7143  -20.5028   39.5523 O   0  0  0  0  0  0  0  0  0  0  0  0
   35.5749  -22.4573   38.0275 O   0  0  0  0  0  0  0  0  0  0  0  0
   37.7243  -20.8756   37.9465 N   0  0  0  0  0  0  0  0  0  0  0  0
   38.2068  -21.5022   38.6556 H   0  0  0  0  0  0  0  0  0  0  0  0
   38.1418  -21.2399   36.6078 C   0  0  0  0  0  0  0  0  0  0  0  0
   38.8286  -20.1206   35.8952 C   0  0  0  0  0  0  0  0  0  0  0  0
   38.6123  -20.1306   34.4189 C   0  0  0  0  0  0  0  0  0  0  0  0
   37.4240  -19.3560   33.9486 C   0  0  0  0  0  0  0  0  0  0  0  0
   39.8459  -19.5886   33.7389 C   0  0  0  0  0  0  0  0  0  0  0  0
   38.4603  -21.4502   33.9886 O   0  0  0  0  0  0  0  0  0  0  0  0
   38.8758  -21.6025   33.1163 H   0  0  0  0  0  0  0  0  0  0  0  0
 17 18  1  0  0  0
 18 19  1  0  0  0
 19 20  2  0  0  0
 20  8  1  0  0  0
  8  9  2  0  0  0
  9 10  1  0  0  0
 10  1  1  0  0  0
  1  2  2  0  0  0
  2  3  1  0  0  0
  3 23  1  0  0  0
 23 24  2  0  0  0
 23 25  2  0  0  0
 23 26  1  0  0  0
 26 28  1  0  0  0
 28 29  1  0  0  0
 29 30  1  0  0  0
 30 31  1  0  0  0
 30 32  1  0  0  0
 30 33  1  0  0  0
  3  4  2  0  0  0
  4  5  1  0  0  0
  5  6  2  0  0  0
  6  7  1  0  0  0
 10 11  2  0  0  0
 11 12  1  0  0  0
 12 13  2  0  0  0
 13 14  1  0  0  0
 20 21  1  0  0  0
 21 22  1  0  0  0
 22 18  2  0  0  0
 13  8  1  0  0  0
  6  1  1  0  0  0
 26 27  1  0  0  0
 33 34  1  0  0  0
 14 15  1  0  0  0
 14 16  1  0  0  0
M  END
> <minimizedAffinity>
-7.09197

> <CNNscore>
0.3902887702

> <CNNaffinity>
5.7774190903

> <CNN_VS>
2.2548618317

> <CNNaffinity_variance>
0.4671398997

$$$$
[H]OC(C([H])([H])[H])(C([H])([H])[H])C([H])([H])C([H])([H])N([H])S(=O)(=O)c1c([H])c([H])c(C([H])([H])[H])c(-c2c([H])nc(N([H])[H])c(-c3onc(C([H])([H])[H])c3[H])c2[H])c1[H]


 34 36  0  0  0  0  0  0  0  0999 V2000
   33.7611  -18.1378   35.5614 C   0  0  0  0  0  0  0  0  0  0  0  0
   33.6413  -19.2166   36.4455 C   0  0  0  0  0  0  0  0  0  0  0  0
   32.7837  -20.2674   36.1964 C   0  0  0  0  0  0  0  0  0  0  0  0
   32.0166  -20.2807   35.0598 C   0  0  0  0  0  0  0  0  0  0  0  0
   32.1160  -19.2310   34.1731 C   0  0  0  0  0  0  0  0  0  0  0  0
   32.9931  -18.1605   34.4314 C   0  0  0  0  0  0  0  0  0  0  0  0
   33.0954  -17.0490   33.4483 C   0  0  0  0  0  0  0  0  0  0  0  0
   35.0257  -14.8024   36.6351 C   0  0  0  0  0  0  0  0  0  0  0  0
   34.1446  -15.8629   36.3786 C   0  0  0  0  0  0  0  0  0  0  0  0
   34.6616  -17.0285   35.8539 C   0  0  0  0  0  0  0  0  0  0  0  0
   36.0191  -17.0937   35.6068 C   0  0  0  0  0  0  0  0  0  0  0  0
   36.8464  -16.0732   35.8571 N   0  0  0  0  0  0  0  0  0  0  0  0
   36.3507  -14.9138   36.3763 C   0  0  0  0  0  0  0  0  0  0  0  0
   37.2601  -13.8625   36.6249 N   0  0  0  0  0  0  0  0  0  0  0  0
   37.5076  -13.1344   35.9157 H   0  0  0  0  0  0  0  0  0  0  0  0
   37.7220  -13.7815   37.5469 H   0  0  0  0  0  0  0  0  0  0  0  0
   33.5062  -10.0569   37.5959 C   0  0  0  0  0  0  0  0  0  0  0  0
   33.7271  -11.5338   37.6458 C   0  0  0  0  0  0  0  0  0  0  0  0
   34.5021  -12.3051   36.7584 C   0  0  0  0  0  0  0  0  0  0  0  0
   34.4115  -13.5902   37.1936 C   0  0  0  0  0  0  0  0  0  0  0  0
   33.6358  -13.5978   38.2695 O   0  0  0  0  0  0  0  0  0  0  0  0
   33.2431  -12.4125   38.5277 N   0  0  0  0  0  0  0  0  0  0  0  0
   32.6789  -21.5977   37.3510 S   0  0  0  0  0  0  0  0  0  0  0  0
   33.4060  -22.7696   36.7327 O   0  0  0  0  0  0  0  0  0  0  0  0
   33.2985  -21.1811   38.6377 O   0  0  0  0  0  0  0  0  0  0  0  0
   31.0360  -22.0259   37.4994 N   0  0  0  0  0  0  0  0  0  0  0  0
   30.5854  -21.8580   36.5523 H   0  0  0  0  0  0  0  0  0  0  0  0
   30.8507  -23.4085   37.8909 C   0  0  0  0  0  0  0  0  0  0  0  0
   29.8872  -23.5613   39.0226 C   0  0  0  0  0  0  0  0  0  0  0  0
   30.5468  -23.7011   40.3536 C   0  0  0  0  0  0  0  0  0  0  0  0
   29.6372  -23.5475   41.5294 C   0  0  0  0  0  0  0  0  0  0  0  0
   31.2156  -25.0521   40.4299 C   0  0  0  0  0  0  0  0  0  0  0  0
   31.5565  -22.7432   40.4659 O   0  0  0  0  0  0  0  0  0  0  0  0
   32.3377  -23.0870   40.9438 H   0  0  0  0  0  0  0  0  0  0  0  0
 17 18  1  0  0  0
 18 19  1  0  0  0
 19 20  2  0  0  0
 20  8  1  0  0  0
  8  9  2  0  0  0
  9 10  1  0  0  0
 10  1  1  0  0  0
  1  2  2  0  0  0
  2  3  1  0  0  0
  3 23  1  0  0  0
 23 24  2  0  0  0
 23 25  2  0  0  0
 23 26  1  0  0  0
 26 28  1  0  0  0
 28 29  1  0  0  0
 29 30  1  0  0  0
 30 31  1  0  0  0
 30 32  1  0  0  0
 30 33  1  0  0  0
  3  4  2  0  0  0
  4  5  1  0  0  0
  5  6  2  0  0  0
  6  7  1  0  0  0
 10 11  2  0  0  0
 11 12  1  0  0  0
 12 13  2  0  0  0
 13 14  1  0  0  0
 20 21  1  0  0  0
 21 22  1  0  0  0
 22 18  2  0  0  0
 13  8  1  0  0  0
  6  1  1  0  0  0
 26 27  1  0  0  0
 33 34  1  0  0  0
 14 15  1  0  0  0
 14 16  1  0  0  0
M  END
> <minimizedAffinity>
-6.54264

> <CNNscore>
0.3567094505

> <CNNaffinity>
5.4653558731

> <CNN_VS>
1.9495440722

> <CNNaffinity_variance>
0.1389447749

$$$$
[H]OC(C([H])([H])[H])(C([H])([H])[H])C([H])([H])C([H])([H])N([H])S(=O)(=O)c1c([H])c([H])c(C([H])([H])[H])c(-c2c([H])nc(N([H])[H])c(-c3onc(C([H])([H])[H])c3[H])c2[H])c1[H]


 34 36  0  0  0  0  0  0  0  0999 V2000
   35.2133  -16.2959   36.2136 C   0  0  0  0  0  0  0  0  0  0  0  0
   34.5464  -15.0653   36.2437 C   0  0  0  0  0  0  0  0  0  0  0  0
   35.0268  -13.9970   36.9713 C   0  0  0  0  0  0  0  0  0  0  0  0
   36.1866  -14.1165   37.6933 C   0  0  0  0  0  0  0  0  0  0  0  0
   36.8624  -15.3169   37.6801 C   0  0  0  0  0  0  0  0  0  0  0  0
   36.3682  -16.4048   36.9355 C   0  0  0  0  0  0  0  0  0  0  0  0
   37.1274  -17.6838   36.9230 C   0  0  0  0  0  0  0  0  0  0  0  0
   32.9551  -19.0223   35.0541 C   0  0  0  0  0  0  0  0  0  0  0  0
   33.4432  -17.9318   35.7885 C   0  0  0  0  0  0  0  0  0  0  0  0
   34.6773  -17.4177   35.4512 C   0  0  0  0  0  0  0  0  0  0  0  0
   35.3708  -18.0014   34.4088 C   0  0  0  0  0  0  0  0  0  0  0  0
   34.8914  -19.0412   33.7179 N   0  0  0  0  0  0  0  0  0  0  0  0
   33.6722  -19.5610   34.0390 C   0  0  0  0  0  0  0  0  0  0  0  0
   33.2052  -20.6585   33.2831 N   0  0  0  0  0  0  0  0  0  0  0  0
   33.4052  -21.6553   33.5296 H   0  0  0  0  0  0  0  0  0  0  0  0
   32.6329  -20.5007   32.4361 H   0  0  0  0  0  0  0  0  0  0  0  0
   29.0575  -21.7932   36.7517 C   0  0  0  0  0  0  0  0  0  0  0  0
   29.9093  -20.6983   36.1967 C   0  0  0  0  0  0  0  0  0  0  0  0
   31.2997  -20.7352   35.9768 C   0  0  0  0  0  0  0  0  0  0  0  0
   31.6354  -19.5215   35.4637 C   0  0  0  0  0  0  0  0  0  0  0  0
   30.5263  -18.7990   35.3786 O   0  0  0  0  0  0  0  0  0  0  0  0
   29.5339  -19.4790   35.8012 N   0  0  0  0  0  0  0  0  0  0  0  0
   34.1390  -12.4721   36.9681 S   0  0  0  0  0  0  0  0  0  0  0  0
   34.0000  -12.0458   38.4115 O   0  0  0  0  0  0  0  0  0  0  0  0
   34.8897  -11.4686   36.1666 O   0  0  0  0  0  0  0  0  0  0  0  0
   32.5754  -12.7848   36.3664 N   0  0  0  0  0  0  0  0  0  0  0  0
   32.5634  -13.7977   36.0468 H   0  0  0  0  0  0  0  0  0  0  0  0
   31.5408  -12.5727   37.3582 C   0  0  0  0  0  0  0  0  0  0  0  0
   30.8360  -11.2670   37.1835 C   0  0  0  0  0  0  0  0  0  0  0  0
   29.5631  -11.1675   37.9557 C   0  0  0  0  0  0  0  0  0  0  0  0
   29.4298  -12.1394   39.0831 C   0  0  0  0  0  0  0  0  0  0  0  0
   29.4300   -9.7672   38.5031 C   0  0  0  0  0  0  0  0  0  0  0  0
   28.4865  -11.3670   37.0893 O   0  0  0  0  0  0  0  0  0  0  0  0
   27.7243  -10.7960   37.3127 H   0  0  0  0  0  0  0  0  0  0  0  0
 17 18  1  0  0  0
 18 19  1  0  0  0
 19 20  2  0  0  0
 20  8  1  0  0  0
  8  9  2  0  0  0
  9 10  1  0  0  0
 10  1  1  0  0  0
  1  2  2  0  0  0
  2  3  1  0  0  0
  3 23  1  0  0  0
 23 24  2  0  0  0
 23 25  2  0  0  0
 23 26  1  0  0  0
 26 28  1  0  0  0
 28 29  1  0  0  0
 29 30  1  0  0  0
 30 31  1  0  0  0
 30 32  1  0  0  0
 30 33  1  0  0  0
  3  4  2  0  0  0
  4  5  1  0  0  0
  5  6  2  0  0  0
  6  7  1  0  0  0
 10 11  2  0  0  0
 11 12  1  0  0  0
 12 13  2  0  0  0
 13 14  1  0  0  0
 20 21  1  0  0  0
 21 22  1  0  0  0
 22 18  2  0  0  0
 13  8  1  0  0  0
  6  1  1  0  0  0
 26 27  1  0  0  0
 33 34  1  0  0  0
 14 15  1  0  0  0
 14 16  1  0  0  0
M  END
> <minimizedAffinity>
-9.29133

> <CNNscore>
0.3497591019

> <CNNaffinity>
6.1514043808

> <CNN_VS>
2.1515097618

> <CNNaffinity_variance>
0.2501686215

$$$$
[H]OC(C([H])([H])[H])(C([H])([H])[H])C([H])([H])C([H])([H])N([H])S(=O)(=O)c1c([H])c([H])c(C([H])([H])[H])c(-c2c([H])nc(N([H])[H])c(-c3onc(C([H])([H])[H])c3[H])c2[H])c1[H]


 34 36  0  0  0  0  0  0  0  0999 V2000
   34.6638  -17.6717   36.0648 C   0  0  0  0  0  0  0  0  0  0  0  0
   35.1319  -18.5680   37.0331 C   0  0  0  0  0  0  0  0  0  0  0  0
   34.8096  -19.9083   36.9976 C   0  0  0  0  0  0  0  0  0  0  0  0
   34.0110  -20.4023   35.9982 C   0  0  0  0  0  0  0  0  0  0  0  0
   33.5375  -19.5412   35.0327 C   0  0  0  0  0  0  0  0  0  0  0  0
   33.8695  -18.1736   35.0728 C   0  0  0  0  0  0  0  0  0  0  0  0
   33.3606  -17.2689   34.0074 C   0  0  0  0  0  0  0  0  0  0  0  0
   34.4140  -14.0035   36.6639 C   0  0  0  0  0  0  0  0  0  0  0  0
   34.0738  -15.3635   36.6253 C   0  0  0  0  0  0  0  0  0  0  0  0
   35.0030  -16.2549   36.1321 C   0  0  0  0  0  0  0  0  0  0  0  0
   36.2204  -15.7651   35.7007 C   0  0  0  0  0  0  0  0  0  0  0  0
   36.5298  -14.4648   35.7443 N   0  0  0  0  0  0  0  0  0  0  0  0
   35.6218  -13.5705   36.2295 C   0  0  0  0  0  0  0  0  0  0  0  0
   35.9906  -12.2078   36.2571 N   0  0  0  0  0  0  0  0  0  0  0  0
   35.8246  -11.5493   35.4613 H   0  0  0  0  0  0  0  0  0  0  0  0
   36.4508  -11.8103   37.0939 H   0  0  0  0  0  0  0  0  0  0  0  0
   30.2748  -11.1644   37.4115 C   0  0  0  0  0  0  0  0  0  0  0  0
   31.5896  -11.8578   37.5640 C   0  0  0  0  0  0  0  0  0  0  0  0
   32.2066  -12.7180   36.6354 C   0  0  0  0  0  0  0  0  0  0  0  0
   33.3805  -13.1076   37.2004 C   0  0  0  0  0  0  0  0  0  0  0  0
   33.4692  -12.5246   38.3885 O   0  0  0  0  0  0  0  0  0  0  0  0
   32.4367  -11.8055   38.5954 N   0  0  0  0  0  0  0  0  0  0  0  0
   35.4319  -20.9864   38.2482 S   0  0  0  0  0  0  0  0  0  0  0  0
   35.1524  -22.3979   37.7853 O   0  0  0  0  0  0  0  0  0  0  0  0
   36.8886  -20.7428   38.4262 O   0  0  0  0  0  0  0  0  0  0  0  0
   34.5233  -20.7152   39.6644 N   0  0  0  0  0  0  0  0  0  0  0  0
   33.6091  -21.2440   39.5517 H   0  0  0  0  0  0  0  0  0  0  0  0
   35.2043  -21.1651   40.8615 C   0  0  0  0  0  0  0  0  0  0  0  0
   34.8094  -22.5494   41.2616 C   0  0  0  0  0  0  0  0  0  0  0  0
   35.9311  -23.5315   41.2004 C   0  0  0  0  0  0  0  0  0  0  0  0
   36.7215  -23.6680   42.4614 C   0  0  0  0  0  0  0  0  0  0  0  0
   35.3781  -24.8846   40.8246 C   0  0  0  0  0  0  0  0  0  0  0  0
   36.8108  -23.1573   40.1827 O   0  0  0  0  0  0  0  0  0  0  0  0
   37.1764  -23.9316   39.7099 H   0  0  0  0  0  0  0  0  0  0  0  0
 17 18  1  0  0  0
 18 19  1  0  0  0
 19 20  2  0  0  0
 20  8  1  0  0  0
  8  9  2  0  0  0
  9 10  1  0  0  0
 10  1  1  0  0  0
  1  2  2  0  0  0
  2  3  1  0  0  0
  3 23  1  0  0  0
 23 24  2  0  0  0
 23 25  2  0  0  0
 23 26  1  0  0  0
 26 28  1  0  0  0
 28 29  1  0  0  0
 29 30  1  0  0  0
 30 31  1  0  0  0
 30 32  1  0  0  0
 30 33  1  0  0  0
  3  4  2  0  0  0
  4  5  1  0  0  0
  5  6  2  0  0  0
  6  7  1  0  0  0
 10 11  2  0  0  0
 11 12  1  0  0  0
 12 13  2  0  0  0
 13 14  1  0  0  0
 20 21  1  0  0  0
 21 22  1  0  0  0
 22 18  2  0  0  0
 13  8  1  0  0  0
  6  1  1  0  0  0
 26 27  1  0  0  0
 33 34  1  0  0  0
 14 15  1  0  0  0
 14 16  1  0  0  0
M  END
> <minimizedAffinity>
-5.82032

> <CNNscore>
0.3385141194

> <CNNaffinity>
5.5648932457

> <CNN_VS>
1.8837949038

> <CNNaffinity_variance>
0.1811846942

$$$$
[H]OC(C([H])([H])[H])(C([H])([H])[H])C([H])([H])C([H])([H])N([H])S(=O)(=O)c1c([H])c([H])c(C([H])([H])[H])c(-c2c([H])nc(N([H])[H])c(-c3onc(C([H])([H])[H])c3[H])c2[H])c1[H]


 34 36  0  0  0  0  0  0  0  0999 V2000
   33.9133  -17.9836   35.5378 C   0  0  0  0  0  0  0  0  0  0  0  0
   33.9253  -19.0544   36.4396 C   0  0  0  0  0  0  0  0  0  0  0  0
   33.2401  -20.2240   36.1866 C   0  0  0  0  0  0  0  0  0  0  0  0
   32.5201  -20.3682   35.0284 C   0  0  0  0  0  0  0  0  0  0  0  0
   32.4924  -19.3293   34.1240 C   0  0  0  0  0  0  0  0  0  0  0  0
   33.1937  -18.1371   34.3864 C   0  0  0  0  0  0  0  0  0  0  0  0
   33.1629  -17.0381   33.3846 C   0  0  0  0  0  0  0  0  0  0  0  0
   34.6293  -14.4587   36.5072 C   0  0  0  0  0  0  0  0  0  0  0  0
   33.9213  -15.6406   36.2452 C   0  0  0  0  0  0  0  0  0  0  0  0
   34.6310  -16.7490   35.8342 C   0  0  0  0  0  0  0  0  0  0  0  0
   36.0016  -16.6407   35.7007 C   0  0  0  0  0  0  0  0  0  0  0  0
   36.6623  -15.5060   35.9547 N   0  0  0  0  0  0  0  0  0  0  0  0
   35.9750  -14.4010   36.3622 C   0  0  0  0  0  0  0  0  0  0  0  0
   36.7129  -13.2249   36.6191 N   0  0  0  0  0  0  0  0  0  0  0  0
   36.9232  -12.5052   35.8895 H   0  0  0  0  0  0  0  0  0  0  0  0
   37.0779  -13.0368   37.5685 H   0  0  0  0  0  0  0  0  0  0  0  0
   30.9204  -11.0914   37.3173 C   0  0  0  0  0  0  0  0  0  0  0  0
   32.2226  -11.8242   37.3183 C   0  0  0  0  0  0  0  0  0  0  0  0
   32.5156  -13.0320   36.6563 C   0  0  0  0  0  0  0  0  0  0  0  0
   33.8146  -13.3158   36.9411 C   0  0  0  0  0  0  0  0  0  0  0  0
   34.2770  -12.3479   37.7214 O   0  0  0  0  0  0  0  0  0  0  0  0
   33.3583  -11.4903   37.9370 N   0  0  0  0  0  0  0  0  0  0  0  0
   33.2952  -21.5370   37.3641 S   0  0  0  0  0  0  0  0  0  0  0  0
   33.6558  -20.9151   38.6937 O   0  0  0  0  0  0  0  0  0  0  0  0
   31.9693  -22.2099   37.4117 O   0  0  0  0  0  0  0  0  0  0  0  0
   34.5667  -22.5802   36.9172 N   0  0  0  0  0  0  0  0  0  0  0  0
   34.6429  -22.5396   35.8585 H   0  0  0  0  0  0  0  0  0  0  0  0
   35.8333  -22.2069   37.5134 C   0  0  0  0  0  0  0  0  0  0  0  0
   36.8222  -23.3269   37.5108 C   0  0  0  0  0  0  0  0  0  0  0  0
   36.4308  -24.4711   38.3849 C   0  0  0  0  0  0  0  0  0  0  0  0
   36.0483  -25.7199   37.6586 C   0  0  0  0  0  0  0  0  0  0  0  0
   37.5713  -24.7842   39.3226 C   0  0  0  0  0  0  0  0  0  0  0  0
   35.3476  -24.0894   39.1791 O   0  0  0  0  0  0  0  0  0  0  0  0
   35.4006  -24.4680   40.0795 H   0  0  0  0  0  0  0  0  0  0  0  0
 17 18  1  0  0  0
 18 19  1  0  0  0
 19 20  2  0  0  0
 20  8  1  0  0  0
  8  9  2  0  0  0
  9 10  1  0  0  0
 10  1  1  0  0  0
  1  2  2  0  0  0
  2  3  1  0  0  0
  3 23  1  0  0  0
 23 24  2  0  0  0
 23 25  2  0  0  0
 23 26  1  0  0  0
 26 28  1  0  0  0
 28 29  1  0  0  0
 29 30  1  0  0  0
 30 31  1  0  0  0
 30 32  1  0  0  0
 30 33  1  0  0  0
  3  4  2  0  0  0
  4  5  1  0  0  0
  5  6  2  0  0  0
  6  7  1  0  0  0
 10 11  2  0  0  0
 11 12  1  0  0  0
 12 13  2  0  0  0
 13 14  1  0  0  0
 20 21  1  0  0  0
 21 22  1  0  0  0
 22 18  2  0  0  0
 13  8  1  0  0  0
  6  1  1  0  0  0
 26 27  1  0  0  0
 33 34  1  0  0  0
 14 15  1  0  0  0
 14 16  1  0  0  0
M  END
> <minimizedAffinity>
-5.94719

> <CNNscore>
0.3195551634

> <CNNaffinity>
5.5203132629

> <CNN_VS>
1.7640446424

> <CNNaffinity_variance>
0.1198355407

$$$$
[H]OC(C([H])([H])[H])(C([H])([H])[H])C([H])([H])C([H])([H])N([H])S(=O)(=O)c1c([H])c([H])c(C([H])([H])[H])c(-c2c([H])nc(N([H])[H])c(-c3onc(C([H])([H])[H])c3[H])c2[H])c1[H]


 34 36  0  0  0  0  0  0  0  0999 V2000
   34.7531  -17.3523   36.0044 C   0  0  0  0  0  0  0  0  0  0  0  0
   35.4371  -18.1806   36.9022 C   0  0  0  0  0  0  0  0  0  0  0  0
   35.3610  -19.5552   36.8238 C   0  0  0  0  0  0  0  0  0  0  0  0
   34.6022  -20.1523   35.8501 C   0  0  0  0  0  0  0  0  0  0  0  0
   33.9194  -19.3597   34.9537 C   0  0  0  0  0  0  0  0  0  0  0  0
   34.0003  -17.9566   35.0374 C   0  0  0  0  0  0  0  0  0  0  0  0
   33.2686  -17.1243   34.0454 C   0  0  0  0  0  0  0  0  0  0  0  0
   33.8243  -13.8002   36.6347 C   0  0  0  0  0  0  0  0  0  0  0  0
   33.7305  -15.1970   36.5513 C   0  0  0  0  0  0  0  0  0  0  0  0
   34.8339  -15.9005   36.1170 C   0  0  0  0  0  0  0  0  0  0  0  0
   35.9750  -15.1960   35.7857 C   0  0  0  0  0  0  0  0  0  0  0  0
   36.0486  -13.8633   35.8708 N   0  0  0  0  0  0  0  0  0  0  0  0
   34.9660  -13.1532   36.2988 C   0  0  0  0  0  0  0  0  0  0  0  0
   35.0883  -11.7484   36.3733 N   0  0  0  0  0  0  0  0  0  0  0  0
   34.8675  -11.1073   35.5766 H   0  0  0  0  0  0  0  0  0  0  0  0
   35.4106  -11.3000   37.2480 H   0  0  0  0  0  0  0  0  0  0  0  0
   30.0246  -11.8634   39.3848 C   0  0  0  0  0  0  0  0  0  0  0  0
   30.9406  -12.2499   38.2693 C   0  0  0  0  0  0  0  0  0  0  0  0
   32.1169  -13.0179   38.3663 C   0  0  0  0  0  0  0  0  0  0  0  0
   32.6145  -13.1115   37.1043 C   0  0  0  0  0  0  0  0  0  0  0  0
   31.7972  -12.4468   36.2983 O   0  0  0  0  0  0  0  0  0  0  0  0
   30.8342  -11.9517   36.9716 N   0  0  0  0  0  0  0  0  0  0  0  0
   36.2473  -20.5436   37.9861 S   0  0  0  0  0  0  0  0  0  0  0  0
   35.7752  -20.1285   39.3607 O   0  0  0  0  0  0  0  0  0  0  0  0
   35.9719  -21.9810   37.7193 O   0  0  0  0  0  0  0  0  0  0  0  0
   37.8975  -20.1368   37.8594 N   0  0  0  0  0  0  0  0  0  0  0  0
   38.0938  -19.4042   38.6030 H   0  0  0  0  0  0  0  0  0  0  0  0
   38.7716  -21.2760   38.0522 C   0  0  0  0  0  0  0  0  0  0  0  0
   39.0833  -21.5242   39.4922 C   0  0  0  0  0  0  0  0  0  0  0  0
   39.1372  -22.9716   39.8507 C   0  0  0  0  0  0  0  0  0  0  0  0
   40.4826  -23.6075   39.7129 C   0  0  0  0  0  0  0  0  0  0  0  0
   38.6624  -23.1424   41.2732 C   0  0  0  0  0  0  0  0  0  0  0  0
   38.2458  -23.6765   39.0395 O   0  0  0  0  0  0  0  0  0  0  0  0
   37.8028  -24.4017   39.5239 H   0  0  0  0  0  0  0  0  0  0  0  0
 17 18  1  0  0  0
 18 19  1  0  0  0
 19 20  2  0  0  0
 20  8  1  0  0  0
  8  9  2  0  0  0
  9 10  1  0  0  0
 10  1  1  0  0  0
  1  2  2  0  0  0
  2  3  1  0  0  0
  3 23  1  0  0  0
 23 24  2  0  0  0
 23 25  2  0  0  0
 23 26  1  0  0  0
 26 28  1  0  0  0
 28 29  1  0  0  0
 29 30  1  0  0  0
 30 31  1  0  0  0
 30 32  1  0  0  0
 30 33  1  0  0  0
  3  4  2  0  0  0
  4  5  1  0  0  0
  5  6  2  0  0  0
  6  7  1  0  0  0
 10 11  2  0  0  0
 11 12  1  0  0  0
 12 13  2  0  0  0
 13 14  1  0  0  0
 20 21  1  0  0  0
 21 22  1  0  0  0
 22 18  2  0  0  0
 13  8  1  0  0  0
  6  1  1  0  0  0
 26 27  1  0  0  0
 33 34  1  0  0  0
 14 15  1  0  0  0
 14 16  1  0  0  0
M  END
> <minimizedAffinity>
-5.87559

> <CNNscore>
0.2607218623

> <CNNaffinity>
5.4923524857

> <CNN_VS>
1.4319763184

> <CNNaffinity_variance>
0.1037317514

$$$$
[H]/C(=C(/[H])c1c([H])c(OC([H])([H])[H])c([H])c(OC([H])([H])[H])c1[H])c1c([H])c([H])c(OC([H])([H])C([H])([H])[H])c([H])c1[H]


 21 22  0  0  0  0  0  0  0  0999 V2000
   32.9494  -22.0607   38.3679 C   0  0  0  0  0  0  0  0  0  0  0  0
   31.8474  -22.7706   38.3074 C   0  0  0  0  0  0  0  0  0  0  0  0
   36.4005  -23.2495   40.5783 C   0  0  0  0  0  0  0  0  0  0  0  0
   36.0117  -23.9181   39.4411 C   0  0  0  0  0  0  0  0  0  0  0  0
   34.8863  -23.5149   38.7376 C   0  0  0  0  0  0  0  0  0  0  0  0
   34.1264  -22.4442   39.1460 C   0  0  0  0  0  0  0  0  0  0  0  0
   34.5139  -21.7761   40.2813 C   0  0  0  0  0  0  0  0  0  0  0  0
   35.6453  -22.1775   40.9931 C   0  0  0  0  0  0  0  0  0  0  0  0
   37.5201  -23.6159   41.3165 O   0  0  0  0  0  0  0  0  0  0  0  0
   38.7999  -21.9511   40.1537 C   0  0  0  0  0  0  0  0  0  0  0  0
   38.7969  -23.3214   40.8014 C   0  0  0  0  0  0  0  0  0  0  0  0
   30.6948  -22.3570   37.5216 C   0  0  0  0  0  0  0  0  0  0  0  0
   29.6519  -23.2745   37.3621 C   0  0  0  0  0  0  0  0  0  0  0  0
   28.5150  -22.9934   36.6412 C   0  0  0  0  0  0  0  0  0  0  0  0
   28.3891  -21.7561   36.0465 C   0  0  0  0  0  0  0  0  0  0  0  0
   29.4116  -20.8527   36.2014 C   0  0  0  0  0  0  0  0  0  0  0  0
   30.5578  -21.1370   36.9285 C   0  0  0  0  0  0  0  0  0  0  0  0
   27.5481  -23.9776   36.5502 O   0  0  0  0  0  0  0  0  0  0  0  0
   27.7621  -25.3357   36.8226 C   0  0  0  0  0  0  0  0  0  0  0  0
   29.2634  -19.6115   35.5934 O   0  0  0  0  0  0  0  0  0  0  0  0
   30.2045  -19.0393   34.7316 C   0  0  0  0  0  0  0  0  0  0  0  0
 10 11  1  0  0  0
 11  9  1  0  0  0
  9  3  1  0  0  0
  3  4  2  0  0  0
  4  5  1  0  0  0
  5  6  2  0  0  0
  6  1  1  0  0  0
  1  2  2  0  0  0
  2 12  1  0  0  0
 12 13  2  0  0  0
 13 14  1  0  0  0
 14 18  1  0  0  0
 18 19  1  0  0  0
 14 15  2  0  0  0
 15 16  1  0  0  0
 16 20  1  0  0  0
 20 21  1  0  0  0
 16 17  2  0  0  0
  6  7  1  0  0  0
  7  8  2  0  0  0
  8  3  1  0  0  0
 17 12  1  0  0  0
M  END
> <minimizedAffinity>
-2.03522

> <CNNscore>
0.6970474720

> <CNNaffinity>
4.0279679298

> <CNN_VS>
2.8076848984

> <CNNaffinity_variance>
0.0444343314

$$$$
[H]/C(=C(/[H])c1c([H])c(OC([H])([H])[H])c([H])c(OC([H])([H])[H])c1[H])c1c([H])c([H])c(OC([H])([H])C([H])([H])[H])c([H])c1[H]


 21 22  0  0  0  0  0  0  0  0999 V2000
   33.9394  -17.6877   35.9978 C   0  0  0  0  0  0  0  0  0  0  0  0
   33.6533  -16.5048   35.5071 C   0  0  0  0  0  0  0  0  0  0  0  0
   32.4479  -21.3955   34.5021 C   0  0  0  0  0  0  0  0  0  0  0  0
   33.0362  -21.3069   35.7421 C   0  0  0  0  0  0  0  0  0  0  0  0
   33.5144  -20.0913   36.2089 C   0  0  0  0  0  0  0  0  0  0  0  0
   33.4193  -18.9432   35.4584 C   0  0  0  0  0  0  0  0  0  0  0  0
   32.8321  -19.0308   34.2203 C   0  0  0  0  0  0  0  0  0  0  0  0
   32.3492  -20.2512   33.7455 C   0  0  0  0  0  0  0  0  0  0  0  0
   31.9540  -22.5904   33.9913 O   0  0  0  0  0  0  0  0  0  0  0  0
   30.7922  -24.6880   34.1018 C   0  0  0  0  0  0  0  0  0  0  0  0
   31.1727  -23.4120   34.8261 C   0  0  0  0  0  0  0  0  0  0  0  0
   34.1901  -15.2754   36.0706 C   0  0  0  0  0  0  0  0  0  0  0  0
   35.5707  -15.2028   36.2793 C   0  0  0  0  0  0  0  0  0  0  0  0
   36.1880  -14.0923   36.8055 C   0  0  0  0  0  0  0  0  0  0  0  0
   35.4208  -12.9984   37.1450 C   0  0  0  0  0  0  0  0  0  0  0  0
   34.0645  -13.0666   36.9412 C   0  0  0  0  0  0  0  0  0  0  0  0
   33.4428  -14.1869   36.4105 C   0  0  0  0  0  0  0  0  0  0  0  0
   37.5606  -14.1324   36.9679 O   0  0  0  0  0  0  0  0  0  0  0  0
   38.3285  -13.1062   37.5350 C   0  0  0  0  0  0  0  0  0  0  0  0
   33.3105  -11.9524   37.2905 O   0  0  0  0  0  0  0  0  0  0  0  0
   33.8468  -10.6849   37.5390 C   0  0  0  0  0  0  0  0  0  0  0  0
 10 11  1  0  0  0
 11  9  1  0  0  0
  9  3  1  0  0  0
  3  4  2  0  0  0
  4  5  1  0  0  0
  5  6  2  0  0  0
  6  1  1  0  0  0
  1  2  2  0  0  0
  2 12  1  0  0  0
 12 13  2  0  0  0
 13 14  1  0  0  0
 14 18  1  0  0  0
 18 19  1  0  0  0
 14 15  2  0  0  0
 15 16  1  0  0  0
 16 20  1  0  0  0
 20 21  1  0  0  0
 16 17  2  0  0  0
  6  7  1  0  0  0
  7  8  2  0  0  0
  8  3  1  0  0  0
 17 12  1  0  0  0
M  END
> <minimizedAffinity>
-6.00327

> <CNNscore>
0.6965112686

> <CNNaffinity>
4.5544075966

> <CNN_VS>
3.1721961498

> <CNNaffinity_variance>
0.3826461732

$$$$
[H]/C(=C(/[H])c1c([H])c(OC([H])([H])[H])c([H])c(OC([H])([H])[H])c1[H])c1c([H])c([H])c(OC([H])([H])C([H])([H])[H])c([H])c1[H]


 21 22  0  0  0  0  0  0  0  0999 V2000
   34.1300  -17.7695   35.9425 C   0  0  0  0  0  0  0  0  0  0  0  0
   33.7448  -16.5669   35.5859 C   0  0  0  0  0  0  0  0  0  0  0  0
   32.3714  -21.4150   34.5908 C   0  0  0  0  0  0  0  0  0  0  0  0
   33.1774  -21.3772   35.7046 C   0  0  0  0  0  0  0  0  0  0  0  0
   33.7391  -20.1811   36.1266 C   0  0  0  0  0  0  0  0  0  0  0  0
   33.5137  -19.0026   35.4553 C   0  0  0  0  0  0  0  0  0  0  0  0
   32.7090  -19.0394   34.3432 C   0  0  0  0  0  0  0  0  0  0  0  0
   32.1413  -20.2400   33.9140 C   0  0  0  0  0  0  0  0  0  0  0  0
   31.7863  -22.5886   34.1293 O   0  0  0  0  0  0  0  0  0  0  0  0
   29.8053  -22.6457   35.4836 C   0  0  0  0  0  0  0  0  0  0  0  0
   31.0523  -23.3802   35.0333 C   0  0  0  0  0  0  0  0  0  0  0  0
   34.3825  -15.3610   36.0920 C   0  0  0  0  0  0  0  0  0  0  0  0
   33.5568  -14.3358   36.5631 C   0  0  0  0  0  0  0  0  0  0  0  0
   34.0482  -13.1529   37.0636 C   0  0  0  0  0  0  0  0  0  0  0  0
   35.4125  -12.9603   37.1066 C   0  0  0  0  0  0  0  0  0  0  0  0
   36.2263  -13.9653   36.6446 C   0  0  0  0  0  0  0  0  0  0  0  0
   35.7299  -15.1579   36.1401 C   0  0  0  0  0  0  0  0  0  0  0  0
   33.1375  -12.2091   37.5018 O   0  0  0  0  0  0  0  0  0  0  0  0
   31.7613  -12.2445   37.2392 C   0  0  0  0  0  0  0  0  0  0  0  0
   37.5985  -13.7497   36.6975 O   0  0  0  0  0  0  0  0  0  0  0  0
   38.2835  -13.3112   37.8351 C   0  0  0  0  0  0  0  0  0  0  0  0
 10 11  1  0  0  0
 11  9  1  0  0  0
  9  3  1  0  0  0
  3  4  2  0  0  0
  4  5  1  0  0  0
  5  6  2  0  0  0
  6  1  1  0  0  0
  1  2  2  0  0  0
  2 12  1  0  0  0
 12 13  2  0  0  0
 13 14  1  0  0  0
 14 18  1  0  0  0
 18 19  1  0  0  0
 14 15  2  0  0  0
 15 16  1  0  0  0
 16 20  1  0  0  0
 20 21  1  0  0  0
 16 17  2  0  0  0
  6  7  1  0  0  0
  7  8  2  0  0  0
  8  3  1  0  0  0
 17 12  1  0  0  0
M  END
> <minimizedAffinity>
-6.11176

> <CNNscore>
0.6584991217

> <CNNaffinity>
4.4970154762

> <CNN_VS>
2.9612808228

> <CNNaffinity_variance>
0.4609224796

$$$$
[H]/C(=C(/[H])c1c([H])c(OC([H])([H])[H])c([H])c(OC([H])([H])[H])c1[H])c1c([H])c([H])c(OC([H])([H])C([H])([H])[H])c([H])c1[H]


 21 22  0  0  0  0  0  0  0  0999 V2000
   34.2306  -13.0081   36.8372 C   0  0  0  0  0  0  0  0  0  0  0  0
   33.2969  -12.7585   37.7249 C   0  0  0  0  0  0  0  0  0  0  0  0
   36.6806  -16.5017   36.8699 C   0  0  0  0  0  0  0  0  0  0  0  0
   35.4905  -16.4667   36.1815 C   0  0  0  0  0  0  0  0  0  0  0  0
   34.7094  -15.3204   36.1842 C   0  0  0  0  0  0  0  0  0  0  0  0
   35.0911  -14.1897   36.8670 C   0  0  0  0  0  0  0  0  0  0  0  0
   36.2792  -14.2238   37.5546 C   0  0  0  0  0  0  0  0  0  0  0  0
   37.0691  -15.3744   37.5555 C   0  0  0  0  0  0  0  0  0  0  0  0
   37.4973  -17.6264   36.8969 O   0  0  0  0  0  0  0  0  0  0  0  0
   38.1389  -18.8485   34.9331 C   0  0  0  0  0  0  0  0  0  0  0  0
   37.1615  -18.7266   36.0851 C   0  0  0  0  0  0  0  0  0  0  0  0
   32.4587  -11.5708   37.6631 C   0  0  0  0  0  0  0  0  0  0  0  0
   33.0752  -10.3534   37.3587 C   0  0  0  0  0  0  0  0  0  0  0  0
   32.3834   -9.1679   37.2734 C   0  0  0  0  0  0  0  0  0  0  0  0
   31.0229   -9.1700   37.4959 C   0  0  0  0  0  0  0  0  0  0  0  0
   30.4144  -10.3641   37.7950 C   0  0  0  0  0  0  0  0  0  0  0  0
   31.1129  -11.5592   37.8809 C   0  0  0  0  0  0  0  0  0  0  0  0
   33.0971   -8.0243   36.9656 O   0  0  0  0  0  0  0  0  0  0  0  0
   34.2536   -7.9928   36.1745 C   0  0  0  0  0  0  0  0  0  0  0  0
   29.0422  -10.3429   38.0154 O   0  0  0  0  0  0  0  0  0  0  0  0
   28.2042  -11.4534   37.8722 C   0  0  0  0  0  0  0  0  0  0  0  0
 10 11  1  0  0  0
 11  9  1  0  0  0
  9  3  1  0  0  0
  3  4  2  0  0  0
  4  5  1  0  0  0
  5  6  2  0  0  0
  6  1  1  0  0  0
  1  2  2  0  0  0
  2 12  1  0  0  0
 12 13  2  0  0  0
 13 14  1  0  0  0
 14 18  1  0  0  0
 18 19  1  0  0  0
 14 15  2  0  0  0
 15 16  1  0  0  0
 16 20  1  0  0  0
 20 21  1  0  0  0
 16 17  2  0  0  0
  6  7  1  0  0  0
  7  8  2  0  0  0
  8  3  1  0  0  0
 17 12  1  0  0  0
M  END
> <minimizedAffinity>
-7.29446

> <CNNscore>
0.6536683440

> <CNNaffinity>
5.1375970840

> <CNN_VS>
3.3582844734

> <CNNaffinity_variance>
0.4094897807

$$$$
[H]/C(=C(/[H])c1c([H])c(OC([H])([H])[H])c([H])c(OC([H])([H])[H])c1[H])c1c([H])c([H])c(OC([H])([H])C([H])([H])[H])c([H])c1[H]


 21 22  0  0  0  0  0  0  0  0999 V2000
   34.0834  -13.4815   36.6424 C   0  0  0  0  0  0  0  0  0  0  0  0
   33.4513  -12.9370   37.6553 C   0  0  0  0  0  0  0  0  0  0  0  0
   36.3223  -17.1021   36.9381 C   0  0  0  0  0  0  0  0  0  0  0  0
   36.7149  -15.9603   37.5965 C   0  0  0  0  0  0  0  0  0  0  0  0
   35.9722  -14.7938   37.4866 C   0  0  0  0  0  0  0  0  0  0  0  0
   34.8293  -14.7363   36.7243 C   0  0  0  0  0  0  0  0  0  0  0  0
   34.4366  -15.8759   36.0666 C   0  0  0  0  0  0  0  0  0  0  0  0
   35.1800  -17.0522   36.1736 C   0  0  0  0  0  0  0  0  0  0  0  0
   37.0330  -18.2942   37.0175 O   0  0  0  0  0  0  0  0  0  0  0  0
   39.2497  -19.1858   36.7869 C   0  0  0  0  0  0  0  0  0  0  0  0
   38.0730  -18.5251   36.0968 C   0  0  0  0  0  0  0  0  0  0  0  0
   32.7184  -11.6857   37.5363 C   0  0  0  0  0  0  0  0  0  0  0  0
   31.3264  -11.7316   37.6593 C   0  0  0  0  0  0  0  0  0  0  0  0
   30.5320  -10.6131   37.5646 C   0  0  0  0  0  0  0  0  0  0  0  0
   31.1246   -9.3891   37.3389 C   0  0  0  0  0  0  0  0  0  0  0  0
   32.4915   -9.3405   37.2177 C   0  0  0  0  0  0  0  0  0  0  0  0
   33.2920  -10.4690   37.3133 C   0  0  0  0  0  0  0  0  0  0  0  0
   29.1660  -10.7775   37.7024 O   0  0  0  0  0  0  0  0  0  0  0  0
   28.5550  -11.7785   38.4699 C   0  0  0  0  0  0  0  0  0  0  0  0
   33.0677   -8.0961   36.9905 O   0  0  0  0  0  0  0  0  0  0  0  0
   34.1962   -7.8847   36.1919 C   0  0  0  0  0  0  0  0  0  0  0  0
 10 11  1  0  0  0
 11  9  1  0  0  0
  9  3  1  0  0  0
  3  4  2  0  0  0
  4  5  1  0  0  0
  5  6  2  0  0  0
  6  1  1  0  0  0
  1  2  2  0  0  0
  2 12  1  0  0  0
 12 13  2  0  0  0
 13 14  1  0  0  0
 14 18  1  0  0  0
 18 19  1  0  0  0
 14 15  2  0  0  0
 15 16  1  0  0  0
 16 20  1  0  0  0
 20 21  1  0  0  0
 16 17  2  0  0  0
  6  7  1  0  0  0
  7  8  2  0  0  0
  8  3  1  0  0  0
 17 12  1  0  0  0
M  END
> <minimizedAffinity>
-7.16469

> <CNNscore>
0.6442595124

> <CNNaffinity>
5.1006054878

> <CNN_VS>
3.2861135006

> <CNNaffinity_variance>
0.3597595990

$$$$
[H]/C(=C(/[H])c1c([H])c(OC([H])([H])[H])c([H])c(OC([H])([H])[H])c1[H])c1c([H])c([H])c(OC([H])([H])C([H])([H])[H])c([H])c1[H]


 21 22  0  0  0  0  0  0  0  0999 V2000
   32.6486  -13.0916   38.0438 C   0  0  0  0  0  0  0  0  0  0  0  0
   33.0141  -13.6303   36.9044 C   0  0  0  0  0  0  0  0  0  0  0  0
   29.0492  -10.8786   38.6407 C   0  0  0  0  0  0  0  0  0  0  0  0
   29.3668  -11.9582   39.4312 C   0  0  0  0  0  0  0  0  0  0  0  0
   30.5423  -12.6637   39.2199 C   0  0  0  0  0  0  0  0  0  0  0  0
   31.4235  -12.3142   38.2239 C   0  0  0  0  0  0  0  0  0  0  0  0
   31.1071  -11.2364   37.4342 C   0  0  0  0  0  0  0  0  0  0  0  0
   29.9258  -10.5229   37.6423 C   0  0  0  0  0  0  0  0  0  0  0  0
   27.8838  -10.1408   38.8138 O   0  0  0  0  0  0  0  0  0  0  0  0
   27.4790   -7.9983   39.8177 C   0  0  0  0  0  0  0  0  0  0  0  0
   27.6738   -9.4847   40.0417 C   0  0  0  0  0  0  0  0  0  0  0  0
   34.2417  -14.3983   36.7625 C   0  0  0  0  0  0  0  0  0  0  0  0
   34.1802  -15.5991   36.0490 C   0  0  0  0  0  0  0  0  0  0  0  0
   35.2759  -16.4063   35.8515 C   0  0  0  0  0  0  0  0  0  0  0  0
   36.4919  -16.0233   36.3760 C   0  0  0  0  0  0  0  0  0  0  0  0
   36.5557  -14.8445   37.0773 C   0  0  0  0  0  0  0  0  0  0  0  0
   35.4502  -14.0310   37.2760 C   0  0  0  0  0  0  0  0  0  0  0  0
   35.0976  -17.5720   35.1295 O   0  0  0  0  0  0  0  0  0  0  0  0
   33.9122  -17.9330   34.4747 C   0  0  0  0  0  0  0  0  0  0  0  0
   37.7916  -14.4779   37.5971 O   0  0  0  0  0  0  0  0  0  0  0  0
   38.3086  -13.1790   37.5579 C   0  0  0  0  0  0  0  0  0  0  0  0
 10 11  1  0  0  0
 11  9  1  0  0  0
  9  3  1  0  0  0
  3  4  2  0  0  0
  4  5  1  0  0  0
  5  6  2  0  0  0
  6  1  1  0  0  0
  1  2  2  0  0  0
  2 12  1  0  0  0
 12 13  2  0  0  0
 13 14  1  0  0  0
 14 18  1  0  0  0
 18 19  1  0  0  0
 14 15  2  0  0  0
 15 16  1  0  0  0
 16 20  1  0  0  0
 20 21  1  0  0  0
 16 17  2  0  0  0
  6  7  1  0  0  0
  7  8  2  0  0  0
  8  3  1  0  0  0
 17 12  1  0  0  0
M  END
> <minimizedAffinity>
-7.12689

> <CNNscore>
0.5715390444

> <CNNaffinity>
4.7443513870

> <CNN_VS>
2.7115819454

> <CNNaffinity_variance>
0.4639603198

$$$$
[H]/C(=C(/[H])c1c([H])c(OC([H])([H])[H])c([H])c(OC([H])([H])[H])c1[H])c1c([H])c([H])c(OC([H])([H])C([H])([H])[H])c([H])c1[H]


 21 22  0  0  0  0  0  0  0  0999 V2000
   32.6544  -13.0948   38.0037 C   0  0  0  0  0  0  0  0  0  0  0  0
   32.9715  -13.7057   36.8865 C   0  0  0  0  0  0  0  0  0  0  0  0
   29.0482  -10.8996   38.6248 C   0  0  0  0  0  0  0  0  0  0  0  0
   29.3612  -11.9968   39.3927 C   0  0  0  0  0  0  0  0  0  0  0  0
   30.5390  -12.6961   39.1738 C   0  0  0  0  0  0  0  0  0  0  0  0
   31.4271  -12.3230   38.1927 C   0  0  0  0  0  0  0  0  0  0  0  0
   31.1153  -11.2276   37.4255 C   0  0  0  0  0  0  0  0  0  0  0  0
   29.9316  -10.5203   37.6413 C   0  0  0  0  0  0  0  0  0  0  0  0
   27.8806  -10.1671   38.8063 O   0  0  0  0  0  0  0  0  0  0  0  0
   27.5450   -8.0303   39.8469 C   0  0  0  0  0  0  0  0  0  0  0  0
   27.6673   -9.5283   40.0427 C   0  0  0  0  0  0  0  0  0  0  0  0
   34.2030  -14.4656   36.7349 C   0  0  0  0  0  0  0  0  0  0  0  0
   35.3386  -14.0073   37.4094 C   0  0  0  0  0  0  0  0  0  0  0  0
   36.5554  -14.6443   37.3395 C   0  0  0  0  0  0  0  0  0  0  0  0
   36.6701  -15.7849   36.5738 C   0  0  0  0  0  0  0  0  0  0  0  0
   35.5566  -16.2376   35.9101 C   0  0  0  0  0  0  0  0  0  0  0  0
   34.3299  -15.5946   35.9811 C   0  0  0  0  0  0  0  0  0  0  0  0
   37.6106  -14.1008   38.0488 O   0  0  0  0  0  0  0  0  0  0  0  0
   38.5312  -13.1796   37.5310 C   0  0  0  0  0  0  0  0  0  0  0  0
   35.6951  -17.3893   35.1441 O   0  0  0  0  0  0  0  0  0  0  0  0
   36.9196  -17.8933   34.6942 C   0  0  0  0  0  0  0  0  0  0  0  0
 10 11  1  0  0  0
 11  9  1  0  0  0
  9  3  1  0  0  0
  3  4  2  0  0  0
  4  5  1  0  0  0
  5  6  2  0  0  0
  6  1  1  0  0  0
  1  2  2  0  0  0
  2 12  1  0  0  0
 12 13  2  0  0  0
 13 14  1  0  0  0
 14 18  1  0  0  0
 18 19  1  0  0  0
 14 15  2  0  0  0
 15 16  1  0  0  0
 16 20  1  0  0  0
 20 21  1  0  0  0
 16 17  2  0  0  0
  6  7  1  0  0  0
  7  8  2  0  0  0
  8  3  1  0  0  0
 17 12  1  0  0  0
M  END
> <minimizedAffinity>
-7.12868

> <CNNscore>
0.5559248924

> <CNNaffinity>
4.7684583664

> <CNN_VS>
2.6509046555

> <CNNaffinity_variance>
0.3925601840

$$$$
[H]/C(=C(/[H])c1c([H])c(OC([H])([H])[H])c([H])c(OC([H])([H])[H])c1[H])c1c([H])c([H])c(OC([H])([H])C([H])([H])[H])c([H])c1[H]


 21 22  0  0  0  0  0  0  0  0999 V2000
   35.9273  -17.9363   37.3643 C   0  0  0  0  0  0  0  0  0  0  0  0
   35.2795  -17.1988   36.4935 C   0  0  0  0  0  0  0  0  0  0  0  0
   36.1594  -22.1956   37.2472 C   0  0  0  0  0  0  0  0  0  0  0  0
   37.2908  -21.4175   37.3255 C   0  0  0  0  0  0  0  0  0  0  0  0
   37.1926  -20.0344   37.3624 C   0  0  0  0  0  0  0  0  0  0  0  0
   35.9749  -19.3970   37.3226 C   0  0  0  0  0  0  0  0  0  0  0  0
   34.8448  -20.1731   37.2445 C   0  0  0  0  0  0  0  0  0  0  0  0
   34.9377  -21.5652   37.2070 C   0  0  0  0  0  0  0  0  0  0  0  0
   36.2070  -23.5844   37.2078 O   0  0  0  0  0  0  0  0  0  0  0  0
   35.3835  -25.7195   36.4833 C   0  0  0  0  0  0  0  0  0  0  0  0
   35.0404  -24.2923   36.8609 C   0  0  0  0  0  0  0  0  0  0  0  0
   35.2544  -15.7459   36.5666 C   0  0  0  0  0  0  0  0  0  0  0  0
   34.0359  -15.1025   36.3294 C   0  0  0  0  0  0  0  0  0  0  0  0
   33.8937  -13.7354   36.3718 C   0  0  0  0  0  0  0  0  0  0  0  0
   34.9945  -12.9571   36.6599 C   0  0  0  0  0  0  0  0  0  0  0  0
   36.1927  -13.5859   36.8934 C   0  0  0  0  0  0  0  0  0  0  0  0
   36.3352  -14.9647   36.8504 C   0  0  0  0  0  0  0  0  0  0  0  0
   32.6404  -13.2082   36.1204 O   0  0  0  0  0  0  0  0  0  0  0  0
   31.9201  -12.4002   37.0107 C   0  0  0  0  0  0  0  0  0  0  0  0
   37.2892  -12.7818   37.1819 O   0  0  0  0  0  0  0  0  0  0  0  0
   38.5505  -13.2687   37.5396 C   0  0  0  0  0  0  0  0  0  0  0  0
 10 11  1  0  0  0
 11  9  1  0  0  0
  9  3  1  0  0  0
  3  4  2  0  0  0
  4  5  1  0  0  0
  5  6  2  0  0  0
  6  1  1  0  0  0
  1  2  2  0  0  0
  2 12  1  0  0  0
 12 13  2  0  0  0
 13 14  1  0  0  0
 14 18  1  0  0  0
 18 19  1  0  0  0
 14 15  2  0  0  0
 15 16  1  0  0  0
 16 20  1  0  0  0
 20 21  1  0  0  0
 16 17  2  0  0  0
  6  7  1  0  0  0
  7  8  2  0  0  0
  8  3  1  0  0  0
 17 12  1  0  0  0
M  END
> <minimizedAffinity>
-5.24055

> <CNNscore>
0.5355246067

> <CNNaffinity>
4.3582592010

> <CNN_VS>
2.3339550495

> <CNNaffinity_variance>
0.2909950614

$$$$
[H]/C(=C(/[H])c1c([H])c(OC([H])([H])[H])c([H])c(OC([H])([H])[H])c1[H])c1c([H])c([H])c(OC([H])([H])C([H])([H])[H])c([H])c1[H]


 21 22  0  0  0  0  0  0  0  0999 V2000
   33.5952  -19.3240   36.3452 C   0  0  0  0  0  0  0  0  0  0  0  0
   32.7853  -19.7103   35.3877 C   0  0  0  0  0  0  0  0  0  0  0  0
   35.9251  -15.7560   36.1228 C   0  0  0  0  0  0  0  0  0  0  0  0
   34.6165  -15.7855   35.7007 C   0  0  0  0  0  0  0  0  0  0  0  0
   33.8771  -16.9564   35.7820 C   0  0  0  0  0  0  0  0  0  0  0  0
   34.4183  -18.1174   36.2815 C   0  0  0  0  0  0  0  0  0  0  0  0
   35.7248  -18.0887   36.7032 C   0  0  0  0  0  0  0  0  0  0  0  0
   36.4735  -16.9135   36.6237 C   0  0  0  0  0  0  0  0  0  0  0  0
   36.7059  -14.6074   36.0614 O   0  0  0  0  0  0  0  0  0  0  0  0
   38.1178  -13.5371   37.6809 C   0  0  0  0  0  0  0  0  0  0  0  0
   36.7067  -13.7295   37.1621 C   0  0  0  0  0  0  0  0  0  0  0  0
   31.9805  -20.9185   35.4862 C   0  0  0  0  0  0  0  0  0  0  0  0
   32.6479  -22.1321   35.6773 C   0  0  0  0  0  0  0  0  0  0  0  0
   31.9911  -23.3355   35.7844 C   0  0  0  0  0  0  0  0  0  0  0  0
   30.6152  -23.3563   35.7011 C   0  0  0  0  0  0  0  0  0  0  0  0
   29.9568  -22.1660   35.5135 C   0  0  0  0  0  0  0  0  0  0  0  0
   30.6199  -20.9528   35.4055 C   0  0  0  0  0  0  0  0  0  0  0  0
   32.7541  -24.4733   35.9721 O   0  0  0  0  0  0  0  0  0  0  0  0
   33.8459  -24.5682   36.8457 C   0  0  0  0  0  0  0  0  0  0  0  0
   28.5698  -22.2104   35.4324 O   0  0  0  0  0  0  0  0  0  0  0  0
   27.7860  -23.2628   35.9161 C   0  0  0  0  0  0  0  0  0  0  0  0
 10 11  1  0  0  0
 11  9  1  0  0  0
  9  3  1  0  0  0
  3  4  2  0  0  0
  4  5  1  0  0  0
  5  6  2  0  0  0
  6  1  1  0  0  0
  1  2  2  0  0  0
  2 12  1  0  0  0
 12 13  2  0  0  0
 13 14  1  0  0  0
 14 18  1  0  0  0
 18 19  1  0  0  0
 14 15  2  0  0  0
 15 16  1  0  0  0
 16 20  1  0  0  0
 20 21  1  0  0  0
 16 17  2  0  0  0
  6  7  1  0  0  0
  7  8  2  0  0  0
  8  3  1  0  0  0
 17 12  1  0  0  0
M  END
> <minimizedAffinity>
-4.99072

> <CNNscore>
0.5334306359

> <CNNaffinity>
4.0814681053

> <CNN_VS>
2.1771800518

> <CNNaffinity_variance>
0.3325053751

$$$$
[H]/C(C(=O)N(C([H])([H])[H])C([H])([H])c1sc2c([H])c([H])c([H])c([H])c2c1C([H])([H])[H])=C(/[H])c1c([H])nc2c(c1[H])C([H])([H])N([H])C([H])([H])C([H])([H])N2[H]


 30 33  0  0  0  0  0  0  0  0999 V2000
   33.0610  -20.8509   35.0364 N   0  0  0  0  0  0  0  0  0  0  0  0
   32.5563  -20.2750   33.8195 C   0  0  0  0  0  0  0  0  0  0  0  0
   34.2015  -20.1591   35.6580 C   0  0  0  0  0  0  0  0  0  0  0  0
   34.9286  -20.7012   36.4904 O   0  0  0  0  0  0  0  0  0  0  0  0
   34.4068  -18.7623   35.2934 C   0  0  0  0  0  0  0  0  0  0  0  0
   34.7428  -17.9508   36.3090 C   0  0  0  0  0  0  0  0  0  0  0  0
   34.9723  -16.5077   36.1090 C   0  0  0  0  0  0  0  0  0  0  0  0
   36.2638  -16.0354   36.0378 C   0  0  0  0  0  0  0  0  0  0  0  0
   36.5621  -14.6931   36.0131 N   0  0  0  0  0  0  0  0  0  0  0  0
   35.5407  -13.8221   36.0616 C   0  0  0  0  0  0  0  0  0  0  0  0
   34.2405  -14.2855   36.1211 C   0  0  0  0  0  0  0  0  0  0  0  0
   33.9390  -15.6235   36.1474 C   0  0  0  0  0  0  0  0  0  0  0  0
   33.0385  -13.3882   36.1523 C   0  0  0  0  0  0  0  0  0  0  0  0
   33.1904  -12.6488   37.3740 N   0  0  0  0  0  0  0  0  0  0  0  0
   33.9497  -11.4675   37.3197 C   0  0  0  0  0  0  0  0  0  0  0  0
   35.1504  -11.3259   36.5061 C   0  0  0  0  0  0  0  0  0  0  0  0
   35.9457  -12.4379   36.1417 N   0  0  0  0  0  0  0  0  0  0  0  0
   33.4730  -13.3357   38.1129 H   0  0  0  0  0  0  0  0  0  0  0  0
   36.9529  -12.2770   35.9333 H   0  0  0  0  0  0  0  0  0  0  0  0
   32.6451  -22.0094   35.6366 C   0  0  0  0  0  0  0  0  0  0  0  0
   31.5891  -24.8707   34.7771 C   0  0  0  0  0  0  0  0  0  0  0  0
   30.8163  -23.8515   35.6471 C   0  0  0  0  0  0  0  0  0  0  0  0
   31.3074  -22.5891   35.7172 C   0  0  0  0  0  0  0  0  0  0  0  0
   29.9991  -21.7933   36.6450 S   0  0  0  0  0  0  0  0  0  0  0  0
   28.9795  -23.1353   36.8700 C   0  0  0  0  0  0  0  0  0  0  0  0
   27.7740  -23.3409   37.5631 C   0  0  0  0  0  0  0  0  0  0  0  0
   27.1853  -24.5776   37.6304 C   0  0  0  0  0  0  0  0  0  0  0  0
   27.8583  -25.5908   36.9702 C   0  0  0  0  0  0  0  0  0  0  0  0
   29.0079  -25.4042   36.3085 C   0  0  0  0  0  0  0  0  0  0  0  0
   29.6374  -24.1399   36.2321 C   0  0  0  0  0  0  0  0  0  0  0  0
 21 22  1  0  0  0
 22 23  2  0  0  0
 23 20  1  0  0  0
 20  1  1  0  0  0
  1  2  1  0  0  0
  1  3  1  0  0  0
  3  4  2  0  0  0
  3  5  1  0  0  0
  5  6  2  0  0  0
  6  7  1  0  0  0
  7  8  2  0  0  0
  8  9  1  0  0  0
  9 10  2  0  0  0
 10 11  1  0  0  0
 11 12  2  0  0  0
 11 13  1  0  0  0
 13 14  1  0  0  0
 14 15  1  0  0  0
 15 16  1  0  0  0
 16 17  1  0  0  0
 23 24  1  0  0  0
 24 25  1  0  0  0
 25 26  2  0  0  0
 26 27  1  0  0  0
 27 28  2  0  0  0
 28 29  1  0  0  0
 29 30  2  0  0  0
 30 22  1  0  0  0
 12  7  1  0  0  0
 30 25  1  0  0  0
 17 10  1  0  0  0
 14 18  1  0  0  0
 17 19  1  0  0  0
M  END
> <minimizedAffinity>
-6.24712

> <CNNscore>
0.5138741136

> <CNNaffinity>
5.5547513962

> <CNN_VS>
2.8544428349

> <CNNaffinity_variance>
0.0601138249

$$$$
[H]/C(C(=O)N(C([H])([H])[H])C([H])([H])c1sc2c([H])c([H])c([H])c([H])c2c1C([H])([H])[H])=C(/[H])c1c([H])nc2c(c1[H])C([H])([H])N([H])C([H])([H])C([H])([H])N2[H]


 30 33  0  0  0  0  0  0  0  0999 V2000
   38.9461  -19.4240   35.1260 N   0  0  0  0  0  0  0  0  0  0  0  0
   38.6141  -20.3044   34.0390 C   0  0  0  0  0  0  0  0  0  0  0  0
   37.8125  -18.7878   35.8160 C   0  0  0  0  0  0  0  0  0  0  0  0
   37.9461  -17.7885   36.5223 O   0  0  0  0  0  0  0  0  0  0  0  0
   36.5109  -19.4311   35.6818 C   0  0  0  0  0  0  0  0  0  0  0  0
   35.4987  -18.6096   35.3601 C   0  0  0  0  0  0  0  0  0  0  0  0
   34.1176  -19.1017   35.2000 C   0  0  0  0  0  0  0  0  0  0  0  0
   33.1500  -18.2469   34.7213 C   0  0  0  0  0  0  0  0  0  0  0  0
   31.8155  -18.5783   34.6940 N   0  0  0  0  0  0  0  0  0  0  0  0
   31.4596  -19.7879   35.1571 C   0  0  0  0  0  0  0  0  0  0  0  0
   32.4239  -20.6578   35.6286 C   0  0  0  0  0  0  0  0  0  0  0  0
   33.7557  -20.3303   35.6588 C   0  0  0  0  0  0  0  0  0  0  0  0
   32.1223  -22.0356   36.1399 C   0  0  0  0  0  0  0  0  0  0  0  0
   31.2864  -21.8046   37.2846 N   0  0  0  0  0  0  0  0  0  0  0  0
   29.9040  -21.6917   37.0581 C   0  0  0  0  0  0  0  0  0  0  0  0
   29.3368  -21.0267   35.8921 C   0  0  0  0  0  0  0  0  0  0  0  0
   30.0331  -20.0120   35.1940 N   0  0  0  0  0  0  0  0  0  0  0  0
   31.7222  -21.0214   37.8272 H   0  0  0  0  0  0  0  0  0  0  0  0
   29.4786  -19.3093   34.6623 H   0  0  0  0  0  0  0  0  0  0  0  0
   40.1993  -19.0574   35.5389 C   0  0  0  0  0  0  0  0  0  0  0  0
   42.8336  -17.8371   36.8087 C   0  0  0  0  0  0  0  0  0  0  0  0
   41.8675  -18.8186   37.5133 C   0  0  0  0  0  0  0  0  0  0  0  0
   40.9276  -19.4285   36.7489 C   0  0  0  0  0  0  0  0  0  0  0  0
   40.2292  -20.5577   37.9500 S   0  0  0  0  0  0  0  0  0  0  0  0
   41.1751  -20.1306   39.2969 C   0  0  0  0  0  0  0  0  0  0  0  0
   41.1874  -20.5241   40.6463 C   0  0  0  0  0  0  0  0  0  0  0  0
   42.0435  -19.9545   41.5535 C   0  0  0  0  0  0  0  0  0  0  0  0
   42.8836  -18.9797   41.0442 C   0  0  0  0  0  0  0  0  0  0  0  0
   42.8778  -18.5976   39.7603 C   0  0  0  0  0  0  0  0  0  0  0  0
   41.9987  -19.1651   38.8086 C   0  0  0  0  0  0  0  0  0  0  0  0
 21 22  1  0  0  0
 22 23  2  0  0  0
 23 20  1  0  0  0
 20  1  1  0  0  0
  1  2  1  0  0  0
  1  3  1  0  0  0
  3  4  2  0  0  0
  3  5  1  0  0  0
  5  6  2  0  0  0
  6  7  1  0  0  0
  7  8  2  0  0  0
  8  9  1  0  0  0
  9 10  2  0  0  0
 10 11  1  0  0  0
 11 12  2  0  0  0
 11 13  1  0  0  0
 13 14  1  0  0  0
 14 15  1  0  0  0
 15 16  1  0  0  0
 16 17  1  0  0  0
 23 24  1  0  0  0
 24 25  1  0  0  0
 25 26  2  0  0  0
 26 27  1  0  0  0
 27 28  2  0  0  0
 28 29  1  0  0  0
 29 30  2  0  0  0
 30 22  1  0  0  0
 12  7  1  0  0  0
 30 25  1  0  0  0
 17 10  1  0  0  0
 14 18  1  0  0  0
 17 19  1  0  0  0
M  END
> <minimizedAffinity>
-6.26863

> <CNNscore>
0.4580676854

> <CNNaffinity>
4.9125151634

> <CNN_VS>
2.2502644062

> <CNNaffinity_variance>
0.2432200164

$$$$
[H]/C(C(=O)N(C([H])([H])[H])C([H])([H])c1sc2c([H])c([H])c([H])c([H])c2c1C([H])([H])[H])=C(/[H])c1c([H])nc2c(c1[H])C([H])([H])N([H])C([H])([H])C([H])([H])N2[H]


 30 33  0  0  0  0  0  0  0  0999 V2000
   35.5645  -15.1669   37.0669 N   0  0  0  0  0  0  0  0  0  0  0  0
   36.6882  -16.0491   37.2286 C   0  0  0  0  0  0  0  0  0  0  0  0
   34.5530  -15.5779   36.0801 C   0  0  0  0  0  0  0  0  0  0  0  0
   33.7337  -14.7903   35.6072 O   0  0  0  0  0  0  0  0  0  0  0  0
   34.5139  -16.9909   35.7220 C   0  0  0  0  0  0  0  0  0  0  0  0
   33.2837  -17.5153   35.6018 C   0  0  0  0  0  0  0  0  0  0  0  0
   33.0725  -18.9338   35.2578 C   0  0  0  0  0  0  0  0  0  0  0  0
   33.3107  -19.3563   33.9691 C   0  0  0  0  0  0  0  0  0  0  0  0
   32.9874  -20.6192   33.5310 N   0  0  0  0  0  0  0  0  0  0  0  0
   32.4168  -21.4610   34.4085 C   0  0  0  0  0  0  0  0  0  0  0  0
   32.1843  -21.0512   35.7073 C   0  0  0  0  0  0  0  0  0  0  0  0
   32.5041  -19.7919   36.1475 C   0  0  0  0  0  0  0  0  0  0  0  0
   31.5765  -21.9300   36.7603 C   0  0  0  0  0  0  0  0  0  0  0  0
   30.2628  -22.2167   36.2558 N   0  0  0  0  0  0  0  0  0  0  0  0
   30.1317  -23.3210   35.3966 C   0  0  0  0  0  0  0  0  0  0  0  0
   31.1313  -23.6810   34.3994 C   0  0  0  0  0  0  0  0  0  0  0  0
   32.0108  -22.7249   33.8390 N   0  0  0  0  0  0  0  0  0  0  0  0
   29.8706  -21.3139   35.8967 H   0  0  0  0  0  0  0  0  0  0  0  0
   32.4016  -22.9094   32.8918 H   0  0  0  0  0  0  0  0  0  0  0  0
   35.3714  -13.9550   37.6747 C   0  0  0  0  0  0  0  0  0  0  0  0
   32.5083  -12.7519   38.3038 C   0  0  0  0  0  0  0  0  0  0  0  0
   33.6509  -12.0144   37.5665 C   0  0  0  0  0  0  0  0  0  0  0  0
   34.7171  -12.7520   37.1680 C   0  0  0  0  0  0  0  0  0  0  0  0
   35.6207  -11.5204   36.2341 S   0  0  0  0  0  0  0  0  0  0  0  0
   34.5766  -10.1975   36.4601 C   0  0  0  0  0  0  0  0  0  0  0  0
   34.6228   -8.8423   36.0901 C   0  0  0  0  0  0  0  0  0  0  0  0
   33.6442   -7.9596   36.4694 C   0  0  0  0  0  0  0  0  0  0  0  0
   32.6220   -8.4996   37.2302 C   0  0  0  0  0  0  0  0  0  0  0  0
   32.5705   -9.7893   37.5885 C   0  0  0  0  0  0  0  0  0  0  0  0
   33.5720  -10.7160   37.2156 C   0  0  0  0  0  0  0  0  0  0  0  0
 21 22  1  0  0  0
 22 23  2  0  0  0
 23 20  1  0  0  0
 20  1  1  0  0  0
  1  2  1  0  0  0
  1  3  1  0  0  0
  3  4  2  0  0  0
  3  5  1  0  0  0
  5  6  2  0  0  0
  6  7  1  0  0  0
  7  8  2  0  0  0
  8  9  1  0  0  0
  9 10  2  0  0  0
 10 11  1  0  0  0
 11 12  2  0  0  0
 11 13  1  0  0  0
 13 14  1  0  0  0
 14 15  1  0  0  0
 15 16  1  0  0  0
 16 17  1  0  0  0
 23 24  1  0  0  0
 24 25  1  0  0  0
 25 26  2  0  0  0
 26 27  1  0  0  0
 27 28  2  0  0  0
 28 29  1  0  0  0
 29 30  2  0  0  0
 30 22  1  0  0  0
 12  7  1  0  0  0
 30 25  1  0  0  0
 17 10  1  0  0  0
 14 18  1  0  0  0
 17 19  1  0  0  0
M  END
> <minimizedAffinity>
-8.19875

> <CNNscore>
0.4442573190

> <CNNaffinity>
5.6297988892

> <CNN_VS>
2.5010793209

> <CNNaffinity_variance>
0.1250300407

$$$$
[H]/C(C(=O)N(C([H])([H])[H])C([H])([H])c1sc2c([H])c([H])c([H])c([H])c2c1C([H])([H])[H])=C(/[H])c1c([H])nc2c(c1[H])C([H])([H])N([H])C([H])([H])C([H])([H])N2[H]


 30 33  0  0  0  0  0  0  0  0999 V2000
   40.7796  -20.4422   34.4169 N   0  0  0  0  0  0  0  0  0  0  0  0
   40.0533  -21.6752   34.5561 C   0  0  0  0  0  0  0  0  0  0  0  0
   40.0289  -19.3057   33.8594 C   0  0  0  0  0  0  0  0  0  0  0  0
   40.5857  -18.3148   33.3868 O   0  0  0  0  0  0  0  0  0  0  0  0
   38.5746  -19.3677   33.9447 C   0  0  0  0  0  0  0  0  0  0  0  0
   37.9744  -18.2206   34.3007 C   0  0  0  0  0  0  0  0  0  0  0  0
   36.5100  -18.1204   34.4448 C   0  0  0  0  0  0  0  0  0  0  0  0
   35.9782  -17.1259   35.2348 C   0  0  0  0  0  0  0  0  0  0  0  0
   34.6403  -17.0627   35.5470 N   0  0  0  0  0  0  0  0  0  0  0  0
   33.8348  -18.0177   35.0535 C   0  0  0  0  0  0  0  0  0  0  0  0
   34.3563  -19.0134   34.2500 C   0  0  0  0  0  0  0  0  0  0  0  0
   35.6903  -19.0805   33.9375 C   0  0  0  0  0  0  0  0  0  0  0  0
   33.5296  -20.1038   33.6349 C   0  0  0  0  0  0  0  0  0  0  0  0
   33.0061  -20.8200   34.7643 N   0  0  0  0  0  0  0  0  0  0  0  0
   31.8020  -20.3534   35.3188 C   0  0  0  0  0  0  0  0  0  0  0  0
   31.4715  -18.9391   35.4366 C   0  0  0  0  0  0  0  0  0  0  0  0
   32.4692  -17.9392   35.5177 N   0  0  0  0  0  0  0  0  0  0  0  0
   33.7975  -20.9451   35.4394 H   0  0  0  0  0  0  0  0  0  0  0  0
   32.2322  -17.0430   35.9915 H   0  0  0  0  0  0  0  0  0  0  0  0
   42.1077  -20.2319   34.6761 C   0  0  0  0  0  0  0  0  0  0  0  0
   42.5249  -17.5824   36.3635 C   0  0  0  0  0  0  0  0  0  0  0  0
   42.7807  -19.0211   36.8713 C   0  0  0  0  0  0  0  0  0  0  0  0
   42.7858  -20.0178   35.9515 C   0  0  0  0  0  0  0  0  0  0  0  0
   43.2988  -21.3916   36.9786 S   0  0  0  0  0  0  0  0  0  0  0  0
   43.4317  -20.5764   38.4649 C   0  0  0  0  0  0  0  0  0  0  0  0
   43.7255  -20.9815   39.7784 C   0  0  0  0  0  0  0  0  0  0  0  0
   43.7030  -20.0966   40.8258 C   0  0  0  0  0  0  0  0  0  0  0  0
   43.3768  -18.7934   40.4932 C   0  0  0  0  0  0  0  0  0  0  0  0
   43.0941  -18.3988   39.2448 C   0  0  0  0  0  0  0  0  0  0  0  0
   43.1034  -19.2949   38.1504 C   0  0  0  0  0  0  0  0  0  0  0  0
 21 22  1  0  0  0
 22 23  2  0  0  0
 23 20  1  0  0  0
 20  1  1  0  0  0
  1  2  1  0  0  0
  1  3  1  0  0  0
  3  4  2  0  0  0
  3  5  1  0  0  0
  5  6  2  0  0  0
  6  7  1  0  0  0
  7  8  2  0  0  0
  8  9  1  0  0  0
  9 10  2  0  0  0
 10 11  1  0  0  0
 11 12  2  0  0  0
 11 13  1  0  0  0
 13 14  1  0  0  0
 14 15  1  0  0  0
 15 16  1  0  0  0
 16 17  1  0  0  0
 23 24  1  0  0  0
 24 25  1  0  0  0
 25 26  2  0  0  0
 26 27  1  0  0  0
 27 28  2  0  0  0
 28 29  1  0  0  0
 29 30  2  0  0  0
 30 22  1  0  0  0
 12  7  1  0  0  0
 30 25  1  0  0  0
 17 10  1  0  0  0
 14 18  1  0  0  0
 17 19  1  0  0  0
M  END
> <minimizedAffinity>
-6.78857

> <CNNscore>
0.3627541661

> <CNNaffinity>
5.1193294525

> <CNN_VS>
1.8570580482

> <CNNaffinity_variance>
0.1593528092

$$$$
[H]/C(C(=O)N(C([H])([H])[H])C([H])([H])c1sc2c([H])c([H])c([H])c([H])c2c1C([H])([H])[H])=C(/[H])c1c([H])nc2c(c1[H])C([H])([H])N([H])C([H])([H])C([H])([H])N2[H]


 30 33  0  0  0  0  0  0  0  0999 V2000
   33.9909  -17.9773   34.9537 N   0  0  0  0  0  0  0  0  0  0  0  0
   34.3095  -16.7892   35.6980 C   0  0  0  0  0  0  0  0  0  0  0  0
   35.1290  -18.6941   34.3564 C   0  0  0  0  0  0  0  0  0  0  0  0
   34.9906  -19.5105   33.4456 O   0  0  0  0  0  0  0  0  0  0  0  0
   36.4445  -18.4455   34.9343 C   0  0  0  0  0  0  0  0  0  0  0  0
   37.3541  -19.4093   34.7184 C   0  0  0  0  0  0  0  0  0  0  0  0
   38.7276  -19.3159   35.2475 C   0  0  0  0  0  0  0  0  0  0  0  0
   38.9344  -19.4217   36.6047 C   0  0  0  0  0  0  0  0  0  0  0  0
   40.1572  -19.1873   37.1889 N   0  0  0  0  0  0  0  0  0  0  0  0
   41.1793  -18.8420   36.3887 C   0  0  0  0  0  0  0  0  0  0  0  0
   40.9854  -18.7447   35.0242 C   0  0  0  0  0  0  0  0  0  0  0  0
   39.7670  -18.9763   34.4380 C   0  0  0  0  0  0  0  0  0  0  0  0
   42.0728  -18.3912   34.0530 C   0  0  0  0  0  0  0  0  0  0  0  0
   42.4595  -17.0620   34.4354 N   0  0  0  0  0  0  0  0  0  0  0  0
   43.4436  -16.9409   35.4314 C   0  0  0  0  0  0  0  0  0  0  0  0
   43.5279  -17.8287   36.5837 C   0  0  0  0  0  0  0  0  0  0  0  0
   42.3960  -18.5084   37.0922 N   0  0  0  0  0  0  0  0  0  0  0  0
   41.5763  -16.5239   34.6031 H   0  0  0  0  0  0  0  0  0  0  0  0
   42.3958  -18.7841   38.0961 H   0  0  0  0  0  0  0  0  0  0  0  0
   32.7432  -18.4707   34.6795 C   0  0  0  0  0  0  0  0  0  0  0  0
   29.6082  -18.8556   34.9335 C   0  0  0  0  0  0  0  0  0  0  0  0
   30.6771  -19.9016   35.3287 C   0  0  0  0  0  0  0  0  0  0  0  0
   31.9676  -19.4876   35.3839 C   0  0  0  0  0  0  0  0  0  0  0  0
   32.7420  -20.9585   36.0490 S   0  0  0  0  0  0  0  0  0  0  0  0
   31.3669  -21.9517   36.1675 C   0  0  0  0  0  0  0  0  0  0  0  0
   31.1580  -23.2900   36.5431 C   0  0  0  0  0  0  0  0  0  0  0  0
   29.9156  -23.8676   36.4847 C   0  0  0  0  0  0  0  0  0  0  0  0
   28.8990  -23.0419   36.0374 C   0  0  0  0  0  0  0  0  0  0  0  0
   29.0892  -21.7661   35.6762 C   0  0  0  0  0  0  0  0  0  0  0  0
   30.3624  -21.1517   35.7206 C   0  0  0  0  0  0  0  0  0  0  0  0
 21 22  1  0  0  0
 22 23  2  0  0  0
 23 20  1  0  0  0
 20  1  1  0  0  0
  1  2  1  0  0  0
  1  3  1  0  0  0
  3  4  2  0  0  0
  3  5  1  0  0  0
  5  6  2  0  0  0
  6  7  1  0  0  0
  7  8  2  0  0  0
  8  9  1  0  0  0
  9 10  2  0  0  0
 10 11  1  0  0  0
 11 12  2  0  0  0
 11 13  1  0  0  0
 13 14  1  0  0  0
 14 15  1  0  0  0
 15 16  1  0  0  0
 16 17  1  0  0  0
 23 24  1  0  0  0
 24 25  1  0  0  0
 25 26  2  0  0  0
 26 27  1  0  0  0
 27 28  2  0  0  0
 28 29  1  0  0  0
 29 30  2  0  0  0
 30 22  1  0  0  0
 12  7  1  0  0  0
 30 25  1  0  0  0
 17 10  1  0  0  0
 14 18  1  0  0  0
 17 19  1  0  0  0
M  END
> <minimizedAffinity>
-6.69992

> <CNNscore>
0.3544259071

> <CNNaffinity>
4.9899244308

> <CNN_VS>
1.7685585022

> <CNNaffinity_variance>
0.5246080160

$$$$
[H]/C(C(=O)N(C([H])([H])[H])C([H])([H])c1sc2c([H])c([H])c([H])c([H])c2c1C([H])([H])[H])=C(/[H])c1c([H])nc2c(c1[H])C([H])([H])N([H])C([H])([H])C([H])([H])N2[H]


 30 33  0  0  0  0  0  0  0  0999 V2000
   34.3866  -19.4504   35.3252 N   0  0  0  0  0  0  0  0  0  0  0  0
   33.5237  -18.8816   34.3258 C   0  0  0  0  0  0  0  0  0  0  0  0
   35.5482  -18.6371   35.7193 C   0  0  0  0  0  0  0  0  0  0  0  0
   36.5238  -19.1160   36.2973 O   0  0  0  0  0  0  0  0  0  0  0  0
   35.4748  -17.2055   35.4522 C   0  0  0  0  0  0  0  0  0  0  0  0
   34.9780  -16.4627   36.4543 C   0  0  0  0  0  0  0  0  0  0  0  0
   34.8258  -15.0004   36.3378 C   0  0  0  0  0  0  0  0  0  0  0  0
   35.9349  -14.2272   36.0766 C   0  0  0  0  0  0  0  0  0  0  0  0
   35.9054  -12.8527   36.1113 N   0  0  0  0  0  0  0  0  0  0  0  0
   34.7400  -12.2573   36.4141 C   0  0  0  0  0  0  0  0  0  0  0  0
   33.6182  -13.0235   36.6660 C   0  0  0  0  0  0  0  0  0  0  0  0
   33.6441  -14.3947   36.6338 C   0  0  0  0  0  0  0  0  0  0  0  0
   32.2713  -12.4457   36.9862 C   0  0  0  0  0  0  0  0  0  0  0  0
   32.4821  -11.7390   38.2186 N   0  0  0  0  0  0  0  0  0  0  0  0
   32.9236  -10.4079   38.1283 C   0  0  0  0  0  0  0  0  0  0  0  0
   33.8787   -9.9488   37.1281 C   0  0  0  0  0  0  0  0  0  0  0  0
   34.8228  -10.8204   36.5358 N   0  0  0  0  0  0  0  0  0  0  0  0
   33.0528  -12.3651   38.8351 H   0  0  0  0  0  0  0  0  0  0  0  0
   35.7060  -10.4126   36.1650 H   0  0  0  0  0  0  0  0  0  0  0  0
   34.2864  -20.6924   35.8933 C   0  0  0  0  0  0  0  0  0  0  0  0
   33.0659  -21.9513   38.5327 C   0  0  0  0  0  0  0  0  0  0  0  0
   32.3598  -21.8870   37.1578 C   0  0  0  0  0  0  0  0  0  0  0  0
   33.1114  -21.5379   36.0841 C   0  0  0  0  0  0  0  0  0  0  0  0
   31.9220  -21.7940   34.7705 S   0  0  0  0  0  0  0  0  0  0  0  0
   30.5939  -22.2915   35.7086 C   0  0  0  0  0  0  0  0  0  0  0  0
   29.2576  -22.6146   35.4160 C   0  0  0  0  0  0  0  0  0  0  0  0
   28.3617  -22.9325   36.4045 C   0  0  0  0  0  0  0  0  0  0  0  0
   28.8690  -22.9139   37.6920 C   0  0  0  0  0  0  0  0  0  0  0  0
   30.1404  -22.6060   37.9801 C   0  0  0  0  0  0  0  0  0  0  0  0
   31.0798  -22.2674   36.9783 C   0  0  0  0  0  0  0  0  0  0  0  0
 21 22  1  0  0  0
 22 23  2  0  0  0
 23 20  1  0  0  0
 20  1  1  0  0  0
  1  2  1  0  0  0
  1  3  1  0  0  0
  3  4  2  0  0  0
  3  5  1  0  0  0
  5  6  2  0  0  0
  6  7  1  0  0  0
  7  8  2  0  0  0
  8  9  1  0  0  0
  9 10  2  0  0  0
 10 11  1  0  0  0
 11 12  2  0  0  0
 11 13  1  0  0  0
 13 14  1  0  0  0
 14 15  1  0  0  0
 15 16  1  0  0  0
 16 17  1  0  0  0
 23 24  1  0  0  0
 24 25  1  0  0  0
 25 26  2  0  0  0
 26 27  1  0  0  0
 27 28  2  0  0  0
 28 29  1  0  0  0
 29 30  2  0  0  0
 30 22  1  0  0  0
 12  7  1  0  0  0
 30 25  1  0  0  0
 17 10  1  0  0  0
 14 18  1  0  0  0
 17 19  1  0  0  0
M  END
> <minimizedAffinity>
-6.53173

> <CNNscore>
0.3288356960

> <CNNaffinity>
5.5216207504

> <CNN_VS>
1.8157060146

> <CNNaffinity_variance>
0.1456037760

$$$$
[H]/C(C(=O)N(C([H])([H])[H])C([H])([H])c1sc2c([H])c([H])c([H])c([H])c2c1C([H])([H])[H])=C(/[H])c1c([H])nc2c(c1[H])C([H])([H])N([H])C([H])([H])C([H])([H])N2[H]


 30 33  0  0  0  0  0  0  0  0999 V2000
   36.0835  -19.3926   35.8771 N   0  0  0  0  0  0  0  0  0  0  0  0
   34.9341  -19.1459   35.0494 C   0  0  0  0  0  0  0  0  0  0  0  0
   37.0269  -18.2733   36.0288 C   0  0  0  0  0  0  0  0  0  0  0  0
   38.1832  -18.4327   36.4197 O   0  0  0  0  0  0  0  0  0  0  0  0
   36.5157  -16.9355   35.7547 C   0  0  0  0  0  0  0  0  0  0  0  0
   36.2243  -16.2022   36.8411 C   0  0  0  0  0  0  0  0  0  0  0  0
   35.6855  -14.8334   36.7347 C   0  0  0  0  0  0  0  0  0  0  0  0
   36.5104  -13.7632   36.9998 C   0  0  0  0  0  0  0  0  0  0  0  0
   36.0463  -12.4709   37.0782 N   0  0  0  0  0  0  0  0  0  0  0  0
   34.7333  -12.2628   36.8863 C   0  0  0  0  0  0  0  0  0  0  0  0
   33.8988  -13.3282   36.6078 C   0  0  0  0  0  0  0  0  0  0  0  0
   34.3577  -14.6186   36.5302 C   0  0  0  0  0  0  0  0  0  0  0  0
   32.4269  -13.1874   36.3543 C   0  0  0  0  0  0  0  0  0  0  0  0
   31.9112  -12.6677   37.5898 N   0  0  0  0  0  0  0  0  0  0  0  0
   31.9179  -11.2718   37.7520 C   0  0  0  0  0  0  0  0  0  0  0  0
   32.9942  -10.4163   37.2693 C   0  0  0  0  0  0  0  0  0  0  0  0
   34.3134  -10.8964   37.0938 N   0  0  0  0  0  0  0  0  0  0  0  0
   32.3596  -13.2160   38.3618 H   0  0  0  0  0  0  0  0  0  0  0  0
   35.0980  -10.2143   37.1485 H   0  0  0  0  0  0  0  0  0  0  0  0
   36.4319  -20.5738   36.4762 C   0  0  0  0  0  0  0  0  0  0  0  0
   38.3436  -21.4652   38.8409 C   0  0  0  0  0  0  0  0  0  0  0  0
   36.8235  -21.2052   38.9633 C   0  0  0  0  0  0  0  0  0  0  0  0
   36.1173  -21.0689   37.8134 C   0  0  0  0  0  0  0  0  0  0  0  0
   34.4548  -20.9861   38.4727 S   0  0  0  0  0  0  0  0  0  0  0  0
   34.8200  -21.1079   40.1290 C   0  0  0  0  0  0  0  0  0  0  0  0
   34.0522  -21.0543   41.3051 C   0  0  0  0  0  0  0  0  0  0  0  0
   34.6321  -21.1210   42.5460 C   0  0  0  0  0  0  0  0  0  0  0  0
   36.0103  -21.2467   42.5497 C   0  0  0  0  0  0  0  0  0  0  0  0
   36.7500  -21.2973   41.4341 C   0  0  0  0  0  0  0  0  0  0  0  0
   36.1748  -21.2225   40.1440 C   0  0  0  0  0  0  0  0  0  0  0  0
 21 22  1  0  0  0
 22 23  2  0  0  0
 23 20  1  0  0  0
 20  1  1  0  0  0
  1  2  1  0  0  0
  1  3  1  0  0  0
  3  4  2  0  0  0
  3  5  1  0  0  0
  5  6  2  0  0  0
  6  7  1  0  0  0
  7  8  2  0  0  0
  8  9  1  0  0  0
  9 10  2  0  0  0
 10 11  1  0  0  0
 11 12  2  0  0  0
 11 13  1  0  0  0
 13 14  1  0  0  0
 14 15  1  0  0  0
 15 16  1  0  0  0
 16 17  1  0  0  0
 23 24  1  0  0  0
 24 25  1  0  0  0
 25 26  2  0  0  0
 26 27  1  0  0  0
 27 28  2  0  0  0
 28 29  1  0  0  0
 29 30  2  0  0  0
 30 22  1  0  0  0
 12  7  1  0  0  0
 30 25  1  0  0  0
 17 10  1  0  0  0
 14 18  1  0  0  0
 17 19  1  0  0  0
M  END
> <minimizedAffinity>
-6.53954

> <CNNscore>
0.3272014558

> <CNNaffinity>
5.6638879776

> <CNN_VS>
1.8532323837

> <CNNaffinity_variance>
0.1368443072

$$$$
[H]/C(C(=O)N(C([H])([H])[H])C([H])([H])c1sc2c([H])c([H])c([H])c([H])c2c1C([H])([H])[H])=C(/[H])c1c([H])nc2c(c1[H])C([H])([H])N([H])C([H])([H])C([H])([H])N2[H]


 30 33  0  0  0  0  0  0  0  0999 V2000
   38.2351  -19.5010   35.2905 N   0  0  0  0  0  0  0  0  0  0  0  0
   38.7215  -18.6202   34.2635 C   0  0  0  0  0  0  0  0  0  0  0  0
   37.4217  -18.8791   36.3477 C   0  0  0  0  0  0  0  0  0  0  0  0
   37.2217  -19.4238   37.4333 O   0  0  0  0  0  0  0  0  0  0  0  0
   36.7973  -17.5990   36.0353 C   0  0  0  0  0  0  0  0  0  0  0  0
   36.8966  -16.6661   36.9959 C   0  0  0  0  0  0  0  0  0  0  0  0
   36.3067  -15.3233   36.8408 C   0  0  0  0  0  0  0  0  0  0  0  0
   37.0903  -14.2139   37.0669 C   0  0  0  0  0  0  0  0  0  0  0  0
   36.5778  -12.9381   37.0993 N   0  0  0  0  0  0  0  0  0  0  0  0
   35.2580  -12.7867   36.9008 C   0  0  0  0  0  0  0  0  0  0  0  0
   34.4645  -13.8922   36.6611 C   0  0  0  0  0  0  0  0  0  0  0  0
   34.9719  -15.1663   36.6295 C   0  0  0  0  0  0  0  0  0  0  0  0
   32.9886  -13.8162   36.4034 C   0  0  0  0  0  0  0  0  0  0  0  0
   32.4526  -13.2724   37.6198 N   0  0  0  0  0  0  0  0  0  0  0  0
   32.4065  -11.8724   37.7319 C   0  0  0  0  0  0  0  0  0  0  0  0
   33.4501  -10.9946   37.2183 C   0  0  0  0  0  0  0  0  0  0  0  0
   34.7867  -11.4305   37.0593 N   0  0  0  0  0  0  0  0  0  0  0  0
   32.9208  -13.7753   38.4108 H   0  0  0  0  0  0  0  0  0  0  0  0
   35.5449  -10.7178   37.0891 H   0  0  0  0  0  0  0  0  0  0  0  0
   38.5071  -20.8357   35.4312 C   0  0  0  0  0  0  0  0  0  0  0  0
   41.3899  -20.0778   36.5065 C   0  0  0  0  0  0  0  0  0  0  0  0
   40.4552  -21.1480   37.1181 C   0  0  0  0  0  0  0  0  0  0  0  0
   39.3672  -21.5150   36.3961 C   0  0  0  0  0  0  0  0  0  0  0  0
   38.7550  -22.8580   37.4096 S   0  0  0  0  0  0  0  0  0  0  0  0
   39.9169  -22.8049   38.6500 C   0  0  0  0  0  0  0  0  0  0  0  0
   40.0891  -23.5033   39.8577 C   0  0  0  0  0  0  0  0  0  0  0  0
   41.1114  -23.2047   40.7214 C   0  0  0  0  0  0  0  0  0  0  0  0
   41.9493  -22.1805   40.3160 C   0  0  0  0  0  0  0  0  0  0  0  0
   41.7920  -21.5089   39.1678 C   0  0  0  0  0  0  0  0  0  0  0  0
   40.7408  -21.7939   38.2654 C   0  0  0  0  0  0  0  0  0  0  0  0
 21 22  1  0  0  0
 22 23  2  0  0  0
 23 20  1  0  0  0
 20  1  1  0  0  0
  1  2  1  0  0  0
  1  3  1  0  0  0
  3  4  2  0  0  0
  3  5  1  0  0  0
  5  6  2  0  0  0
  6  7  1  0  0  0
  7  8  2  0  0  0
  8  9  1  0  0  0
  9 10  2  0  0  0
 10 11  1  0  0  0
 11 12  2  0  0  0
 11 13  1  0  0  0
 13 14  1  0  0  0
 14 15  1  0  0  0
 15 16  1  0  0  0
 16 17  1  0  0  0
 23 24  1  0  0  0
 24 25  1  0  0  0
 25 26  2  0  0  0
 26 27  1  0  0  0
 27 28  2  0  0  0
 28 29  1  0  0  0
 29 30  2  0  0  0
 30 22  1  0  0  0
 12  7  1  0  0  0
 30 25  1  0  0  0
 17 10  1  0  0  0
 14 18  1  0  0  0
 17 19  1  0  0  0
M  END
> <minimizedAffinity>
-5.88946

> <CNNscore>
0.3187270463

> <CNNaffinity>
5.5193080902

> <CNN_VS>
1.7591527700

> <CNNaffinity_variance>
0.0479463451

$$$$
[H]/C(C(=O)N(C([H])([H])[H])C([H])([H])c1sc2c([H])c([H])c([H])c([H])c2c1C([H])([H])[H])=C(/[H])c1c([H])nc2c(c1[H])C([H])([H])N([H])C([H])([H])C([H])([H])N2[H]


 30 33  0  0  0  0  0  0  0  0999 V2000
   36.8812  -18.7388   36.3992 N   0  0  0  0  0  0  0  0  0  0  0  0
   36.2777  -18.8498   37.6994 C   0  0  0  0  0  0  0  0  0  0  0  0
   36.5534  -17.5261   35.6325 C   0  0  0  0  0  0  0  0  0  0  0  0
   36.7206  -17.4492   34.4153 O   0  0  0  0  0  0  0  0  0  0  0  0
   36.0733  -16.3752   36.3881 C   0  0  0  0  0  0  0  0  0  0  0  0
   35.7259  -15.3106   35.6472 C   0  0  0  0  0  0  0  0  0  0  0  0
   35.2334  -14.0629   36.2603 C   0  0  0  0  0  0  0  0  0  0  0  0
   34.0157  -14.0641   36.9031 C   0  0  0  0  0  0  0  0  0  0  0  0
   33.4165  -12.9130   37.3584 N   0  0  0  0  0  0  0  0  0  0  0  0
   34.0585  -11.7501   37.1593 C   0  0  0  0  0  0  0  0  0  0  0  0
   35.2865  -11.7390   36.5261 C   0  0  0  0  0  0  0  0  0  0  0  0
   35.8866  -12.8849   36.0692 C   0  0  0  0  0  0  0  0  0  0  0  0
   36.0861  -10.4929   36.2842 C   0  0  0  0  0  0  0  0  0  0  0  0
   35.2513   -9.7091   35.4174 N   0  0  0  0  0  0  0  0  0  0  0  0
   34.3051   -8.8669   36.0260 C   0  0  0  0  0  0  0  0  0  0  0  0
   33.5624   -9.2341   37.2247 C   0  0  0  0  0  0  0  0  0  0  0  0
   33.3118  -10.5834   37.5688 N   0  0  0  0  0  0  0  0  0  0  0  0
   34.8760  -10.3589   34.6862 H   0  0  0  0  0  0  0  0  0  0  0  0
   32.4799  -10.7961   38.1574 H   0  0  0  0  0  0  0  0  0  0  0  0
   37.6647  -19.6691   35.7699 C   0  0  0  0  0  0  0  0  0  0  0  0
   39.4244  -19.4320   33.1454 C   0  0  0  0  0  0  0  0  0  0  0  0
   39.9557  -19.3389   34.5952 C   0  0  0  0  0  0  0  0  0  0  0  0
   39.1139  -19.7021   35.5948 C   0  0  0  0  0  0  0  0  0  0  0  0
   40.2262  -19.6042   36.9944 S   0  0  0  0  0  0  0  0  0  0  0  0
   41.6302  -19.0938   36.1822 C   0  0  0  0  0  0  0  0  0  0  0  0
   42.9223  -18.7302   36.5992 C   0  0  0  0  0  0  0  0  0  0  0  0
   43.8667  -18.2865   35.7094 C   0  0  0  0  0  0  0  0  0  0  0  0
   43.4558  -18.2287   34.3891 C   0  0  0  0  0  0  0  0  0  0  0  0
   42.2263  -18.5719   33.9830 C   0  0  0  0  0  0  0  0  0  0  0  0
   41.2338  -19.0247   34.8833 C   0  0  0  0  0  0  0  0  0  0  0  0
 21 22  1  0  0  0
 22 23  2  0  0  0
 23 20  1  0  0  0
 20  1  1  0  0  0
  1  2  1  0  0  0
  1  3  1  0  0  0
  3  4  2  0  0  0
  3  5  1  0  0  0
  5  6  2  0  0  0
  6  7  1  0  0  0
  7  8  2  0  0  0
  8  9  1  0  0  0
  9 10  2  0  0  0
 10 11  1  0  0  0
 11 12  2  0  0  0
 11 13  1  0  0  0
 13 14  1  0  0  0
 14 15  1  0  0  0
 15 16  1  0  0  0
 16 17  1  0  0  0
 23 24  1  0  0  0
 24 25  1  0  0  0
 25 26  2  0  0  0
 26 27  1  0  0  0
 27 28  2  0  0  0
 28 29  1  0  0  0
 29 30  2  0  0  0
 30 22  1  0  0  0
 12  7  1  0  0  0
 30 25  1  0  0  0
 17 10  1  0  0  0
 14 18  1  0  0  0
 17 19  1  0  0  0
M  END
> <minimizedAffinity>
-6.40458

> <CNNscore>
0.2986198962

> <CNNaffinity>
5.8918738365

> <CNN_VS>
1.7594307661

> <CNNaffinity_variance>
0.1631288677

$$$$
[H]c1c([H])c([H])c(C([H])([H])N(C([H])([H])[H])C([H])([H])C([H])([H])OC(=O)C2=C(C([H])([H])[H])N=C(C([H])([H])[H])C([H])(C(=O)OC([H])([H])[H])C2([H])c2c([H])c([H])c([H])c([N+](=O)[O-])c2[H])c([H])c1[H]


 35 37  0  0  0  0  0  0  0  0999 V2000
   36.2228  -15.6332   36.3129 C   0  0  0  0  0  0  0  0  0  0  0  0
   35.0107  -15.0369   35.7419 C   0  0  0  0  0  0  0  0  0  0  0  0
   35.0493  -13.5370   35.4977 C   0  0  0  0  0  0  0  0  0  0  0  0
   33.9559  -15.6504   35.4390 N   0  0  0  0  0  0  0  0  0  0  0  0
   33.8426  -17.0470   35.6314 C   0  0  0  0  0  0  0  0  0  0  0  0
   32.5319  -17.6886   35.2594 C   0  0  0  0  0  0  0  0  0  0  0  0
   34.8580  -17.7192   36.1317 C   0  0  0  0  0  0  0  0  0  0  0  0
   36.1654  -17.0788   36.4816 C   0  0  0  0  0  0  0  0  0  0  0  0
   37.2365  -17.8006   35.7301 C   0  0  0  0  0  0  0  0  0  0  0  0
   37.3004  -17.8301   34.3644 C   0  0  0  0  0  0  0  0  0  0  0  0
   38.3156  -18.4892   33.7011 C   0  0  0  0  0  0  0  0  0  0  0  0
   39.3002  -19.1409   34.4361 C   0  0  0  0  0  0  0  0  0  0  0  0
   39.2434  -19.1163   35.8203 C   0  0  0  0  0  0  0  0  0  0  0  0
   38.2104  -18.4453   36.4482 C   0  0  0  0  0  0  0  0  0  0  0  0
   40.2590  -19.7876   36.5489 N   0  0  0  0  0  0  0  0  0  0  0  0
   40.1371  -21.0071   36.7441 O   0  0  0  0  0  0  0  0  0  0  0  0
   41.3626  -19.1528   37.0443 O   0  0  0  0  0  0  0  0  0  0  0  0
   36.4562  -14.9053   37.6186 C   0  0  0  0  0  0  0  0  0  0  0  0
   35.5390  -14.6324   38.3924 O   0  0  0  0  0  0  0  0  0  0  0  0
   38.2612  -13.2730   37.5446 C   0  0  0  0  0  0  0  0  0  0  0  0
   37.7522  -14.5470   37.9273 O   0  0  0  0  0  0  0  0  0  0  0  0
   34.7449  -19.1549   36.3336 C   0  0  0  0  0  0  0  0  0  0  0  0
   34.7825  -19.8978   35.2806 O   0  0  0  0  0  0  0  0  0  0  0  0
   34.6015  -19.8498   37.5118 O   0  0  0  0  0  0  0  0  0  0  0  0
   35.4233  -21.0135   37.7089 C   0  0  0  0  0  0  0  0  0  0  0  0
   34.6441  -22.2647   37.7794 C   0  0  0  0  0  0  0  0  0  0  0  0
   33.3718  -22.2582   38.3785 N   0  0  0  0  0  0  0  0  0  0  0  0
   33.2155  -22.4800   39.7451 C   0  0  0  0  0  0  0  0  0  0  0  0
   32.4567  -23.0072   37.5620 C   0  0  0  0  0  0  0  0  0  0  0  0
   31.3674  -22.2059   36.9714 C   0  0  0  0  0  0  0  0  0  0  0  0
   31.5391  -21.3140   35.9286 C   0  0  0  0  0  0  0  0  0  0  0  0
   30.4941  -20.5838   35.4049 C   0  0  0  0  0  0  0  0  0  0  0  0
   29.2310  -20.7480   35.9395 C   0  0  0  0  0  0  0  0  0  0  0  0
   29.0400  -21.6320   36.9789 C   0  0  0  0  0  0  0  0  0  0  0  0
   30.0913  -22.3431   37.4799 C   0  0  0  0  0  0  0  0  0  0  0  0
 20 21  1  0  0  0
 21 18  1  0  0  0
 18 19  2  0  0  0
 18  1  1  0  0  0
  1  2  1  0  0  0
  2  3  1  0  0  0
  2  4  2  0  0  0
  4  5  1  0  0  0
  5  6  1  0  0  0
  5  7  2  0  0  0
  7 22  1  0  0  0
 22 23  2  0  0  0
 22 24  1  0  0  0
 24 25  1  0  0  0
 25 26  1  0  0  0
 26 27  1  0  0  0
 27 28  1  0  0  0
 27 29  1  0  0  0
 29 30  1  0  0  0
 30 31  2  0  0  0
 31 32  1  0  0  0
 32 33  2  0  0  0
 33 34  1  0  0  0
 34 35  2  0  0  0
  7  8  1  0  0  0
  8  9  1  0  0  0
  9 10  2  0  0  0
 10 11  1  0  0  0
 11 12  2  0  0  0
 12 13  1  0  0  0
 13 15  1  0  0  0
 15 16  2  0  0  0
 15 17  1  0  0  0
 13 14  2  0  0  0
  8  1  1  0  0  0
 14  9  1  0  0  0
 35 30  1  0  0  0
M  CHG 1  15   1
M  CHG 1  17  -1
M  END
> <minimizedAffinity>
-5.31598

> <CNNscore>
0.3832648098

> <CNNaffinity>
5.4800138474

> <CNN_VS>
2.1002964973

> <CNNaffinity_variance>
0.1748190522

$$$$
[H]c1c([H])c([H])c(C([H])([H])N(C([H])([H])[H])C([H])([H])C([H])([H])OC(=O)C2=C(C([H])([H])[H])N=C(C([H])([H])[H])C([H])(C(=O)OC([H])([H])[H])C2([H])c2c([H])c([H])c([H])c([N+](=O)[O-])c2[H])c([H])c1[H]


 35 37  0  0  0  0  0  0  0  0999 V2000
   29.9400  -23.0034   37.4339 C   0  0  0  0  0  0  0  0  0  0  0  0
   28.9850  -21.8910   37.3995 C   0  0  0  0  0  0  0  0  0  0  0  0
   27.7729  -22.0161   38.3084 C   0  0  0  0  0  0  0  0  0  0  0  0
   29.0806  -20.8549   36.6938 N   0  0  0  0  0  0  0  0  0  0  0  0
   30.1803  -20.6614   35.8259 C   0  0  0  0  0  0  0  0  0  0  0  0
   30.1949  -19.3993   35.0044 C   0  0  0  0  0  0  0  0  0  0  0  0
   31.1233  -21.5775   35.7567 C   0  0  0  0  0  0  0  0  0  0  0  0
   31.1132  -22.8214   36.5901 C   0  0  0  0  0  0  0  0  0  0  0  0
   32.3974  -22.8635   37.3530 C   0  0  0  0  0  0  0  0  0  0  0  0
   33.3439  -23.8332   37.1691 C   0  0  0  0  0  0  0  0  0  0  0  0
   34.5294  -23.8312   37.8758 C   0  0  0  0  0  0  0  0  0  0  0  0
   34.7715  -22.8196   38.7990 C   0  0  0  0  0  0  0  0  0  0  0  0
   33.8181  -21.8329   38.9919 C   0  0  0  0  0  0  0  0  0  0  0  0
   32.6428  -21.8694   38.2647 C   0  0  0  0  0  0  0  0  0  0  0  0
   34.0873  -20.8110   39.9385 N   0  0  0  0  0  0  0  0  0  0  0  0
   34.9178  -19.9373   39.6437 O   0  0  0  0  0  0  0  0  0  0  0  0
   33.4744  -20.7461   41.1578 O   0  0  0  0  0  0  0  0  0  0  0  0
   29.1424  -24.2340   37.0613 C   0  0  0  0  0  0  0  0  0  0  0  0
   28.9463  -25.1553   37.8533 O   0  0  0  0  0  0  0  0  0  0  0  0
   28.8958  -25.4251   34.9523 C   0  0  0  0  0  0  0  0  0  0  0  0
   28.6287  -24.2991   35.7826 O   0  0  0  0  0  0  0  0  0  0  0  0
   32.2546  -21.3839   34.8636 C   0  0  0  0  0  0  0  0  0  0  0  0
   32.2396  -22.0362   33.7516 O   0  0  0  0  0  0  0  0  0  0  0  0
   33.3620  -20.5869   35.0374 O   0  0  0  0  0  0  0  0  0  0  0  0
   33.6979  -19.6659   33.9852 C   0  0  0  0  0  0  0  0  0  0  0  0
   33.7652  -18.2651   34.4444 C   0  0  0  0  0  0  0  0  0  0  0  0
   35.0106  -17.7008   34.7736 N   0  0  0  0  0  0  0  0  0  0  0  0
   36.1955  -18.2045   34.2410 C   0  0  0  0  0  0  0  0  0  0  0  0
   35.0671  -17.4641   36.1898 C   0  0  0  0  0  0  0  0  0  0  0  0
   35.5778  -16.1320   36.5672 C   0  0  0  0  0  0  0  0  0  0  0  0
   36.6580  -15.9252   37.4055 C   0  0  0  0  0  0  0  0  0  0  0  0
   37.1041  -14.6631   37.7335 C   0  0  0  0  0  0  0  0  0  0  0  0
   36.4502  -13.5661   37.2071 C   0  0  0  0  0  0  0  0  0  0  0  0
   35.3718  -13.7519   36.3699 C   0  0  0  0  0  0  0  0  0  0  0  0
   34.9495  -15.0120   36.0606 C   0  0  0  0  0  0  0  0  0  0  0  0
 20 21  1  0  0  0
 21 18  1  0  0  0
 18 19  2  0  0  0
 18  1  1  0  0  0
  1  2  1  0  0  0
  2  3  1  0  0  0
  2  4  2  0  0  0
  4  5  1  0  0  0
  5  6  1  0  0  0
  5  7  2  0  0  0
  7 22  1  0  0  0
 22 23  2  0  0  0
 22 24  1  0  0  0
 24 25  1  0  0  0
 25 26  1  0  0  0
 26 27  1  0  0  0
 27 28  1  0  0  0
 27 29  1  0  0  0
 29 30  1  0  0  0
 30 31  2  0  0  0
 31 32  1  0  0  0
 32 33  2  0  0  0
 33 34  1  0  0  0
 34 35  2  0  0  0
  7  8  1  0  0  0
  8  9  1  0  0  0
  9 10  2  0  0  0
 10 11  1  0  0  0
 11 12  2  0  0  0
 12 13  1  0  0  0
 13 15  1  0  0  0
 15 16  2  0  0  0
 15 17  1  0  0  0
 13 14  2  0  0  0
  8  1  1  0  0  0
 14  9  1  0  0  0
 35 30  1  0  0  0
M  CHG 1  15   1
M  CHG 1  17  -1
M  END
> <minimizedAffinity>
-6.27741

> <CNNscore>
0.2468007505

> <CNNaffinity>
4.9960722923

> <CNN_VS>
1.2330343723

> <CNNaffinity_variance>
0.8461973071

$$$$
[H]c1c([H])c([H])c(C([H])([H])N(C([H])([H])[H])C([H])([H])C([H])([H])OC(=O)C2=C(C([H])([H])[H])N=C(C([H])([H])[H])C([H])(C(=O)OC([H])([H])[H])C2([H])c2c([H])c([H])c([H])c([N+](=O)[O-])c2[H])c([H])c1[H]


 35 37  0  0  0  0  0  0  0  0999 V2000
   35.3185  -18.3207   36.3704 C   0  0  0  0  0  0  0  0  0  0  0  0
   36.3697  -17.3009   36.2951 C   0  0  0  0  0  0  0  0  0  0  0  0
   35.9085  -15.8774   36.0273 C   0  0  0  0  0  0  0  0  0  0  0  0
   37.6038  -17.4983   36.4324 N   0  0  0  0  0  0  0  0  0  0  0  0
   38.1121  -18.7930   36.6881 C   0  0  0  0  0  0  0  0  0  0  0  0
   39.6062  -18.9329   36.8148 C   0  0  0  0  0  0  0  0  0  0  0  0
   37.2818  -19.8097   36.7890 C   0  0  0  0  0  0  0  0  0  0  0  0
   35.7957  -19.6613   36.6812 C   0  0  0  0  0  0  0  0  0  0  0  0
   35.1948  -20.2240   37.9283 C   0  0  0  0  0  0  0  0  0  0  0  0
   35.5482  -19.8068   39.1818 C   0  0  0  0  0  0  0  0  0  0  0  0
   34.9583  -20.3329   40.3132 C   0  0  0  0  0  0  0  0  0  0  0  0
   33.9795  -21.3120   40.1797 C   0  0  0  0  0  0  0  0  0  0  0  0
   33.6152  -21.7408   38.9136 C   0  0  0  0  0  0  0  0  0  0  0  0
   34.2294  -21.1895   37.8044 C   0  0  0  0  0  0  0  0  0  0  0  0
   32.6143  -22.7402   38.8021 N   0  0  0  0  0  0  0  0  0  0  0  0
   32.9281  -23.9181   39.0344 O   0  0  0  0  0  0  0  0  0  0  0  0
   31.3233  -22.4641   38.4508 O   0  0  0  0  0  0  0  0  0  0  0  0
   34.5946  -18.2555   35.0433 C   0  0  0  0  0  0  0  0  0  0  0  0
   35.1482  -18.5273   33.9783 O   0  0  0  0  0  0  0  0  0  0  0  0
   32.2523  -18.7801   34.6361 C   0  0  0  0  0  0  0  0  0  0  0  0
   33.2685  -17.8753   35.0571 O   0  0  0  0  0  0  0  0  0  0  0  0
   37.8004  -21.1431   37.0493 C   0  0  0  0  0  0  0  0  0  0  0  0
   37.7281  -21.9966   36.0857 O   0  0  0  0  0  0  0  0  0  0  0  0
   38.3705  -21.6356   38.2000 O   0  0  0  0  0  0  0  0  0  0  0  0
   38.4765  -23.0631   38.3388 C   0  0  0  0  0  0  0  0  0  0  0  0
   39.8712  -23.5440   38.3035 C   0  0  0  0  0  0  0  0  0  0  0  0
   40.8838  -22.7034   37.8078 N   0  0  0  0  0  0  0  0  0  0  0  0
   41.3551  -22.8318   36.5030 C   0  0  0  0  0  0  0  0  0  0  0  0
   41.9254  -22.5817   38.7902 C   0  0  0  0  0  0  0  0  0  0  0  0
   42.2314  -21.1941   39.1884 C   0  0  0  0  0  0  0  0  0  0  0  0
   43.1373  -20.3814   38.5317 C   0  0  0  0  0  0  0  0  0  0  0  0
   43.3947  -19.0892   38.9361 C   0  0  0  0  0  0  0  0  0  0  0  0
   42.7249  -18.5876   40.0352 C   0  0  0  0  0  0  0  0  0  0  0  0
   41.8185  -19.3822   40.7025 C   0  0  0  0  0  0  0  0  0  0  0  0
   41.5815  -20.6586   40.2823 C   0  0  0  0  0  0  0  0  0  0  0  0
 20 21  1  0  0  0
 21 18  1  0  0  0
 18 19  2  0  0  0
 18  1  1  0  0  0
  1  2  1  0  0  0
  2  3  1  0  0  0
  2  4  2  0  0  0
  4  5  1  0  0  0
  5  6  1  0  0  0
  5  7  2  0  0  0
  7 22  1  0  0  0
 22 23  2  0  0  0
 22 24  1  0  0  0
 24 25  1  0  0  0
 25 26  1  0  0  0
 26 27  1  0  0  0
 27 28  1  0  0  0
 27 29  1  0  0  0
 29 30  1  0  0  0
 30 31  2  0  0  0
 31 32  1  0  0  0
 32 33  2  0  0  0
 33 34  1  0  0  0
 34 35  2  0  0  0
  7  8  1  0  0  0
  8  9  1  0  0  0
  9 10  2  0  0  0
 10 11  1  0  0  0
 11 12  2  0  0  0
 12 13  1  0  0  0
 13 15  1  0  0  0
 15 16  2  0  0  0
 15 17  1  0  0  0
 13 14  2  0  0  0
  8  1  1  0  0  0
 14  9  1  0  0  0
 35 30  1  0  0  0
M  CHG 1  15   1
M  CHG 1  17  -1
M  END
> <minimizedAffinity>
-4.64840

> <CNNscore>
0.2393633276

> <CNNaffinity>
4.7547702789

> <CNN_VS>
1.1381176710

> <CNNaffinity_variance>
0.8218795061

$$$$
[H]c1c([H])c([H])c(C([H])([H])N(C([H])([H])[H])C([H])([H])C([H])([H])OC(=O)C2=C(C([H])([H])[H])N=C(C([H])([H])[H])C([H])(C(=O)OC([H])([H])[H])C2([H])c2c([H])c([H])c([H])c([N+](=O)[O-])c2[H])c([H])c1[H]


 35 37  0  0  0  0  0  0  0  0999 V2000
   32.3217  -21.4201   36.1072 C   0  0  0  0  0  0  0  0  0  0  0  0
   31.3863  -20.3158   35.8702 C   0  0  0  0  0  0  0  0  0  0  0  0
   29.9073  -20.6619   35.9304 C   0  0  0  0  0  0  0  0  0  0  0  0
   31.6967  -19.1221   35.6262 N   0  0  0  0  0  0  0  0  0  0  0  0
   33.0506  -18.7191   35.5579 C   0  0  0  0  0  0  0  0  0  0  0  0
   33.3226  -17.2729   35.2376 C   0  0  0  0  0  0  0  0  0  0  0  0
   34.0038  -19.6050   35.7570 C   0  0  0  0  0  0  0  0  0  0  0  0
   33.7270  -21.0374   36.0941 C   0  0  0  0  0  0  0  0  0  0  0  0
   34.4307  -21.3429   37.3764 C   0  0  0  0  0  0  0  0  0  0  0  0
   35.5396  -22.1400   37.4484 C   0  0  0  0  0  0  0  0  0  0  0  0
   36.1785  -22.3855   38.6469 C   0  0  0  0  0  0  0  0  0  0  0  0
   35.6855  -21.8097   39.8130 C   0  0  0  0  0  0  0  0  0  0  0  0
   34.5625  -21.0007   39.7496 C   0  0  0  0  0  0  0  0  0  0  0  0
   33.9504  -20.7788   38.5300 C   0  0  0  0  0  0  0  0  0  0  0  0
   34.0782  -20.4239   40.9520 N   0  0  0  0  0  0  0  0  0  0  0  0
   34.6795  -19.4448   41.4209 O   0  0  0  0  0  0  0  0  0  0  0  0
   32.9818  -20.8975   41.6154 O   0  0  0  0  0  0  0  0  0  0  0  0
   31.9939  -22.4609   35.0590 C   0  0  0  0  0  0  0  0  0  0  0  0
   32.1282  -22.2464   33.8547 O   0  0  0  0  0  0  0  0  0  0  0  0
   30.9944  -24.6273   34.5737 C   0  0  0  0  0  0  0  0  0  0  0  0
   31.5303  -23.6843   35.4969 O   0  0  0  0  0  0  0  0  0  0  0  0
   35.3974  -19.1954   35.6852 C   0  0  0  0  0  0  0  0  0  0  0  0
   35.9492  -19.2026   34.5200 O   0  0  0  0  0  0  0  0  0  0  0  0
   36.2295  -18.7915   36.7030 O   0  0  0  0  0  0  0  0  0  0  0  0
   36.1147  -17.4345   37.1652 C   0  0  0  0  0  0  0  0  0  0  0  0
   36.6467  -16.4504   36.2029 C   0  0  0  0  0  0  0  0  0  0  0  0
   36.7677  -15.1019   36.5832 N   0  0  0  0  0  0  0  0  0  0  0  0
   36.7826  -14.7283   37.9254 C   0  0  0  0  0  0  0  0  0  0  0  0
   35.9003  -14.2971   35.7679 C   0  0  0  0  0  0  0  0  0  0  0  0
   34.9032  -13.5144   36.5235 C   0  0  0  0  0  0  0  0  0  0  0  0
   33.8206  -14.0682   37.1820 C   0  0  0  0  0  0  0  0  0  0  0  0
   32.9111  -13.3011   37.8776 C   0  0  0  0  0  0  0  0  0  0  0  0
   33.0862  -11.9315   37.9190 C   0  0  0  0  0  0  0  0  0  0  0  0
   34.1588  -11.3612   37.2691 C   0  0  0  0  0  0  0  0  0  0  0  0
   35.0454  -12.1427   36.5870 C   0  0  0  0  0  0  0  0  0  0  0  0
 20 21  1  0  0  0
 21 18  1  0  0  0
 18 19  2  0  0  0
 18  1  1  0  0  0
  1  2  1  0  0  0
  2  3  1  0  0  0
  2  4  2  0  0  0
  4  5  1  0  0  0
  5  6  1  0  0  0
  5  7  2  0  0  0
  7 22  1  0  0  0
 22 23  2  0  0  0
 22 24  1  0  0  0
 24 25  1  0  0  0
 25 26  1  0  0  0
 26 27  1  0  0  0
 27 28  1  0  0  0
 27 29  1  0  0  0
 29 30  1  0  0  0
 30 31  2  0  0  0
 31 32  1  0  0  0
 32 33  2  0  0  0
 33 34  1  0  0  0
 34 35  2  0  0  0
  7  8  1  0  0  0
  8  9  1  0  0  0
  9 10  2  0  0  0
 10 11  1  0  0  0
 11 12  2  0  0  0
 12 13  1  0  0  0
 13 15  1  0  0  0
 15 16  2  0  0  0
 15 17  1  0  0  0
 13 14  2  0  0  0
  8  1  1  0  0  0
 14  9  1  0  0  0
 35 30  1  0  0  0
M  CHG 1  15   1
M  CHG 1  17  -1
M  END
> <minimizedAffinity>
-6.66951

> <CNNscore>
0.2293589264

> <CNNaffinity>
5.3616743088

> <CNN_VS>
1.2297478914

> <CNNaffinity_variance>
0.7112829089

$$$$
[H]c1c([H])c([H])c(C([H])([H])N(C([H])([H])[H])C([H])([H])C([H])([H])OC(=O)C2=C(C([H])([H])[H])N=C(C([H])([H])[H])C([H])(C(=O)OC([H])([H])[H])C2([H])c2c([H])c([H])c([H])c([N+](=O)[O-])c2[H])c([H])c1[H]


 35 37  0  0  0  0  0  0  0  0999 V2000
   42.5578  -20.8520   36.1705 C   0  0  0  0  0  0  0  0  0  0  0  0
   42.2565  -22.0619   35.3985 C   0  0  0  0  0  0  0  0  0  0  0  0
   43.4116  -22.6667   34.6170 C   0  0  0  0  0  0  0  0  0  0  0  0
   41.1404  -22.6366   35.3286 N   0  0  0  0  0  0  0  0  0  0  0  0
   40.0176  -22.1389   36.0298 C   0  0  0  0  0  0  0  0  0  0  0  0
   38.7186  -22.8829   35.8655 C   0  0  0  0  0  0  0  0  0  0  0  0
   40.1408  -21.0588   36.7723 C   0  0  0  0  0  0  0  0  0  0  0  0
   41.4395  -20.3344   36.9471 C   0  0  0  0  0  0  0  0  0  0  0  0
   41.7241  -20.2662   38.4125 C   0  0  0  0  0  0  0  0  0  0  0  0
   41.8555  -19.0877   39.0938 C   0  0  0  0  0  0  0  0  0  0  0  0
   42.0977  -19.0597   40.4522 C   0  0  0  0  0  0  0  0  0  0  0  0
   42.2117  -20.2577   41.1495 C   0  0  0  0  0  0  0  0  0  0  0  0
   42.0800  -21.4565   40.4675 C   0  0  0  0  0  0  0  0  0  0  0  0
   41.8377  -21.4431   39.1064 C   0  0  0  0  0  0  0  0  0  0  0  0
   42.1997  -22.6657   41.1999 N   0  0  0  0  0  0  0  0  0  0  0  0
   43.2885  -22.9260   41.7354 O   0  0  0  0  0  0  0  0  0  0  0  0
   41.1720  -23.5546   41.3413 O   0  0  0  0  0  0  0  0  0  0  0  0
   43.0795  -19.8490   35.1649 C   0  0  0  0  0  0  0  0  0  0  0  0
   42.3979  -19.4476   34.2222 O   0  0  0  0  0  0  0  0  0  0  0  0
   44.6208  -18.2266   36.1239 C   0  0  0  0  0  0  0  0  0  0  0  0
   44.3676  -19.3850   35.3349 O   0  0  0  0  0  0  0  0  0  0  0  0
   38.9882  -20.5420   37.4930 C   0  0  0  0  0  0  0  0  0  0  0  0
   38.6315  -21.1770   38.5568 O   0  0  0  0  0  0  0  0  0  0  0  0
   38.2074  -19.4490   37.1976 O   0  0  0  0  0  0  0  0  0  0  0  0
   36.8233  -19.4882   37.5862 C   0  0  0  0  0  0  0  0  0  0  0  0
   36.1477  -18.1837   37.4463 C   0  0  0  0  0  0  0  0  0  0  0  0
   35.4854  -17.8692   36.2463 N   0  0  0  0  0  0  0  0  0  0  0  0
   35.1289  -18.8621   35.3362 C   0  0  0  0  0  0  0  0  0  0  0  0
   36.1131  -16.7272   35.6407 C   0  0  0  0  0  0  0  0  0  0  0  0
   35.5759  -15.4267   36.0853 C   0  0  0  0  0  0  0  0  0  0  0  0
   36.3580  -14.3761   36.5289 C   0  0  0  0  0  0  0  0  0  0  0  0
   35.8162  -13.1759   36.9360 C   0  0  0  0  0  0  0  0  0  0  0  0
   34.4446  -13.0160   36.8997 C   0  0  0  0  0  0  0  0  0  0  0  0
   33.6488  -14.0514   36.4607 C   0  0  0  0  0  0  0  0  0  0  0  0
   34.2096  -15.2301   36.0632 C   0  0  0  0  0  0  0  0  0  0  0  0
 20 21  1  0  0  0
 21 18  1  0  0  0
 18 19  2  0  0  0
 18  1  1  0  0  0
  1  2  1  0  0  0
  2  3  1  0  0  0
  2  4  2  0  0  0
  4  5  1  0  0  0
  5  6  1  0  0  0
  5  7  2  0  0  0
  7 22  1  0  0  0
 22 23  2  0  0  0
 22 24  1  0  0  0
 24 25  1  0  0  0
 25 26  1  0  0  0
 26 27  1  0  0  0
 27 28  1  0  0  0
 27 29  1  0  0  0
 29 30  1  0  0  0
 30 31  2  0  0  0
 31 32  1  0  0  0
 32 33  2  0  0  0
 33 34  1  0  0  0
 34 35  2  0  0  0
  7  8  1  0  0  0
  8  9  1  0  0  0
  9 10  2  0  0  0
 10 11  1  0  0  0
 11 12  2  0  0  0
 12 13  1  0  0  0
 13 15  1  0  0  0
 15 16  2  0  0  0
 15 17  1  0  0  0
 13 14  2  0  0  0
  8  1  1  0  0  0
 14  9  1  0  0  0
 35 30  1  0  0  0
M  CHG 1  15   1
M  CHG 1  17  -1
M  END
> <minimizedAffinity>
-5.31249

> <CNNscore>
0.1944598556

> <CNNaffinity>
5.0597829819

> <CNN_VS>
0.9839246869

> <CNNaffinity_variance>
0.1639437973

$$$$
[H]c1c([H])c([H])c(C([H])([H])N(C([H])([H])[H])C([H])([H])C([H])([H])OC(=O)C2=C(C([H])([H])[H])N=C(C([H])([H])[H])C([H])(C(=O)OC([H])([H])[H])C2([H])c2c([H])c([H])c([H])c([N+](=O)[O-])c2[H])c([H])c1[H]


 35 37  0  0  0  0  0  0  0  0999 V2000
   40.0663  -20.5431   37.2447 C   0  0  0  0  0  0  0  0  0  0  0  0
   40.8555  -20.5398   36.0086 C   0  0  0  0  0  0  0  0  0  0  0  0
   42.1948  -21.2568   36.0632 C   0  0  0  0  0  0  0  0  0  0  0  0
   40.5247  -20.0037   34.9205 N   0  0  0  0  0  0  0  0  0  0  0  0
   39.2928  -19.3219   34.7872 C   0  0  0  0  0  0  0  0  0  0  0  0
   38.9954  -18.6931   33.4515 C   0  0  0  0  0  0  0  0  0  0  0  0
   38.4749  -19.2492   35.8163 C   0  0  0  0  0  0  0  0  0  0  0  0
   38.7675  -19.8928   37.1362 C   0  0  0  0  0  0  0  0  0  0  0  0
   37.6266  -20.8031   37.4567 C   0  0  0  0  0  0  0  0  0  0  0  0
   37.4997  -22.0570   36.9260 C   0  0  0  0  0  0  0  0  0  0  0  0
   36.4438  -22.8810   37.2592 C   0  0  0  0  0  0  0  0  0  0  0  0
   35.4826  -22.4285   38.1569 C   0  0  0  0  0  0  0  0  0  0  0  0
   35.6030  -21.1595   38.6996 C   0  0  0  0  0  0  0  0  0  0  0  0
   36.6753  -20.3638   38.3408 C   0  0  0  0  0  0  0  0  0  0  0  0
   34.6107  -20.7198   39.6134 N   0  0  0  0  0  0  0  0  0  0  0  0
   34.8772  -19.7646   40.3594 O   0  0  0  0  0  0  0  0  0  0  0  0
   33.3776  -21.3002   39.7086 O   0  0  0  0  0  0  0  0  0  0  0  0
   40.9506  -19.9021   38.2918 C   0  0  0  0  0  0  0  0  0  0  0  0
   41.6119  -18.8895   38.0638 O   0  0  0  0  0  0  0  0  0  0  0  0
   41.6303  -21.7584   39.7130 C   0  0  0  0  0  0  0  0  0  0  0  0
   40.9982  -20.4942   39.5370 O   0  0  0  0  0  0  0  0  0  0  0  0
   37.2084  -18.5468   35.6845 C   0  0  0  0  0  0  0  0  0  0  0  0
   37.0896  -17.4319   36.3209 O   0  0  0  0  0  0  0  0  0  0  0  0
   36.0951  -18.9076   34.9620 O   0  0  0  0  0  0  0  0  0  0  0  0
   35.0381  -17.9414   34.8306 C   0  0  0  0  0  0  0  0  0  0  0  0
   33.7948  -18.5173   34.2826 C   0  0  0  0  0  0  0  0  0  0  0  0
   32.9739  -19.3086   35.1058 N   0  0  0  0  0  0  0  0  0  0  0  0
   33.3290  -19.5908   36.4231 C   0  0  0  0  0  0  0  0  0  0  0  0
   32.5255  -20.4576   34.3683 C   0  0  0  0  0  0  0  0  0  0  0  0
   31.2919  -21.0763   34.8908 C   0  0  0  0  0  0  0  0  0  0  0  0
   30.1793  -20.3628   35.2974 C   0  0  0  0  0  0  0  0  0  0  0  0
   29.0452  -20.9798   35.7800 C   0  0  0  0  0  0  0  0  0  0  0  0
   29.0182  -22.3585   35.8606 C   0  0  0  0  0  0  0  0  0  0  0  0
   30.1170  -23.0867   35.4602 C   0  0  0  0  0  0  0  0  0  0  0  0
   31.2281  -22.4521   34.9861 C   0  0  0  0  0  0  0  0  0  0  0  0
 20 21  1  0  0  0
 21 18  1  0  0  0
 18 19  2  0  0  0
 18  1  1  0  0  0
  1  2  1  0  0  0
  2  3  1  0  0  0
  2  4  2  0  0  0
  4  5  1  0  0  0
  5  6  1  0  0  0
  5  7  2  0  0  0
  7 22  1  0  0  0
 22 23  2  0  0  0
 22 24  1  0  0  0
 24 25  1  0  0  0
 25 26  1  0  0  0
 26 27  1  0  0  0
 27 28  1  0  0  0
 27 29  1  0  0  0
 29 30  1  0  0  0
 30 31  2  0  0  0
 31 32  1  0  0  0
 32 33  2  0  0  0
 33 34  1  0  0  0
 34 35  2  0  0  0
  7  8  1  0  0  0
  8  9  1  0  0  0
  9 10  2  0  0  0
 10 11  1  0  0  0
 11 12  2  0  0  0
 12 13  1  0  0  0
 13 15  1  0  0  0
 15 16  2  0  0  0
 15 17  1  0  0  0
 13 14  2  0  0  0
  8  1  1  0  0  0
 14  9  1  0  0  0
 35 30  1  0  0  0
M  CHG 1  15   1
M  CHG 1  17  -1
M  END
> <minimizedAffinity>
-5.34975

> <CNNscore>
0.1417676806

> <CNNaffinity>
4.7887592316

> <CNN_VS>
0.6788913012

> <CNNaffinity_variance>
0.6398023963

$$$$
[H]c1c([H])c([H])c(C([H])([H])N(C([H])([H])[H])C([H])([H])C([H])([H])OC(=O)C2=C(C([H])([H])[H])N=C(C([H])([H])[H])C([H])(C(=O)OC([H])([H])[H])C2([H])c2c([H])c([H])c([H])c([N+](=O)[O-])c2[H])c([H])c1[H]


 35 37  0  0  0  0  0  0  0  0999 V2000
   36.8189  -19.3933   37.1865 C   0  0  0  0  0  0  0  0  0  0  0  0
   36.8091  -18.1271   36.4467 C   0  0  0  0  0  0  0  0  0  0  0  0
   36.0044  -16.9939   37.0623 C   0  0  0  0  0  0  0  0  0  0  0  0
   37.4022  -17.8991   35.3617 N   0  0  0  0  0  0  0  0  0  0  0  0
   38.1749  -18.8996   34.7277 C   0  0  0  0  0  0  0  0  0  0  0  0
   38.8289  -18.5384   33.4200 C   0  0  0  0  0  0  0  0  0  0  0  0
   38.2805  -20.0889   35.2822 C   0  0  0  0  0  0  0  0  0  0  0  0
   37.6438  -20.4362   36.5921 C   0  0  0  0  0  0  0  0  0  0  0  0
   38.7237  -20.9216   37.5038 C   0  0  0  0  0  0  0  0  0  0  0  0
   39.7441  -20.1245   37.9436 C   0  0  0  0  0  0  0  0  0  0  0  0
   40.7149  -20.5987   38.8025 C   0  0  0  0  0  0  0  0  0  0  0  0
   40.6575  -21.9197   39.2339 C   0  0  0  0  0  0  0  0  0  0  0  0
   39.6273  -22.7346   38.7934 C   0  0  0  0  0  0  0  0  0  0  0  0
   38.6737  -22.2227   37.9331 C   0  0  0  0  0  0  0  0  0  0  0  0
   39.5892  -24.0783   39.2472 N   0  0  0  0  0  0  0  0  0  0  0  0
   39.5878  -24.9868   38.4018 O   0  0  0  0  0  0  0  0  0  0  0  0
   39.5538  -24.4159   40.5705 O   0  0  0  0  0  0  0  0  0  0  0  0
   35.3672  -19.8015   37.3103 C   0  0  0  0  0  0  0  0  0  0  0  0
   34.8046  -19.9078   38.3997 O   0  0  0  0  0  0  0  0  0  0  0  0
   33.2726  -19.8151   36.0693 C   0  0  0  0  0  0  0  0  0  0  0  0
   34.6741  -20.0574   36.1452 O   0  0  0  0  0  0  0  0  0  0  0  0
   39.0719  -21.1215   34.6323 C   0  0  0  0  0  0  0  0  0  0  0  0
   38.4959  -22.2565   34.4266 O   0  0  0  0  0  0  0  0  0  0  0  0
   40.3744  -21.0603   34.1948 O   0  0  0  0  0  0  0  0  0  0  0  0
   41.4120  -21.4197   35.1235 C   0  0  0  0  0  0  0  0  0  0  0  0
   42.6290  -20.5984   34.9749 C   0  0  0  0  0  0  0  0  0  0  0  0
   42.6815  -19.3215   35.5618 N   0  0  0  0  0  0  0  0  0  0  0  0
   42.2290  -18.1938   34.8801 C   0  0  0  0  0  0  0  0  0  0  0  0
   43.9581  -19.1408   36.1964 C   0  0  0  0  0  0  0  0  0  0  0  0
   43.9264  -19.2268   37.6692 C   0  0  0  0  0  0  0  0  0  0  0  0
   43.3501  -18.2737   38.4888 C   0  0  0  0  0  0  0  0  0  0  0  0
   43.3417  -18.3917   39.8620 C   0  0  0  0  0  0  0  0  0  0  0  0
   43.9289  -19.5001   40.4404 C   0  0  0  0  0  0  0  0  0  0  0  0
   44.5083  -20.4605   39.6404 C   0  0  0  0  0  0  0  0  0  0  0  0
   44.5037  -20.3203   38.2831 C   0  0  0  0  0  0  0  0  0  0  0  0
 20 21  1  0  0  0
 21 18  1  0  0  0
 18 19  2  0  0  0
 18  1  1  0  0  0
  1  2  1  0  0  0
  2  3  1  0  0  0
  2  4  2  0  0  0
  4  5  1  0  0  0
  5  6  1  0  0  0
  5  7  2  0  0  0
  7 22  1  0  0  0
 22 23  2  0  0  0
 22 24  1  0  0  0
 24 25  1  0  0  0
 25 26  1  0  0  0
 26 27  1  0  0  0
 27 28  1  0  0  0
 27 29  1  0  0  0
 29 30  1  0  0  0
 30 31  2  0  0  0
 31 32  1  0  0  0
 32 33  2  0  0  0
 33 34  1  0  0  0
 34 35  2  0  0  0
  7  8  1  0  0  0
  8  9  1  0  0  0
  9 10  2  0  0  0
 10 11  1  0  0  0
 11 12  2  0  0  0
 12 13  1  0  0  0
 13 15  1  0  0  0
 15 16  2  0  0  0
 15 17  1  0  0  0
 13 14  2  0  0  0
  8  1  1  0  0  0
 14  9  1  0  0  0
 35 30  1  0  0  0
M  CHG 1  15   1
M  CHG 1  17  -1
M  END
> <minimizedAffinity>
-4.61074

> <CNNscore>
0.1364790052

> <CNNaffinity>
4.9004712105

> <CNN_VS>
0.6688114405

> <CNNaffinity_variance>
0.9046878815

$$$$
[H]c1c([H])c([H])c(C([H])([H])N(C([H])([H])[H])C([H])([H])C([H])([H])OC(=O)C2=C(C([H])([H])[H])N=C(C([H])([H])[H])C([H])(C(=O)OC([H])([H])[H])C2([H])c2c([H])c([H])c([H])c([N+](=O)[O-])c2[H])c([H])c1[H]


 35 37  0  0  0  0  0  0  0  0999 V2000
   39.2294  -21.1400   37.4708 C   0  0  0  0  0  0  0  0  0  0  0  0
   39.9689  -21.4625   36.2460 C   0  0  0  0  0  0  0  0  0  0  0  0
   41.1180  -22.4466   36.3929 C   0  0  0  0  0  0  0  0  0  0  0  0
   39.7373  -21.0029   35.0988 N   0  0  0  0  0  0  0  0  0  0  0  0
   38.6832  -20.0862   34.8786 C   0  0  0  0  0  0  0  0  0  0  0  0
   38.4985  -19.5745   33.4742 C   0  0  0  0  0  0  0  0  0  0  0  0
   37.9274  -19.7091   35.8884 C   0  0  0  0  0  0  0  0  0  0  0  0
   38.1037  -20.2359   37.2788 C   0  0  0  0  0  0  0  0  0  0  0  0
   36.7985  -20.8244   37.7068 C   0  0  0  0  0  0  0  0  0  0  0  0
   35.8992  -20.1562   38.4910 C   0  0  0  0  0  0  0  0  0  0  0  0
   34.6925  -20.7210   38.8514 C   0  0  0  0  0  0  0  0  0  0  0  0
   34.3794  -22.0016   38.4081 C   0  0  0  0  0  0  0  0  0  0  0  0
   35.2845  -22.6861   37.6133 C   0  0  0  0  0  0  0  0  0  0  0  0
   36.4831  -22.0864   37.2737 C   0  0  0  0  0  0  0  0  0  0  0  0
   34.9431  -23.9908   37.1727 N   0  0  0  0  0  0  0  0  0  0  0  0
   33.8335  -24.4485   37.4878 O   0  0  0  0  0  0  0  0  0  0  0  0
   35.7799  -24.7642   36.4190 O   0  0  0  0  0  0  0  0  0  0  0  0
   40.2591  -20.5886   38.4325 C   0  0  0  0  0  0  0  0  0  0  0  0
   40.4024  -21.0359   39.5700 O   0  0  0  0  0  0  0  0  0  0  0  0
   42.1549  -19.0995   38.7734 C   0  0  0  0  0  0  0  0  0  0  0  0
   41.0514  -19.5484   37.9927 O   0  0  0  0  0  0  0  0  0  0  0  0
   36.8440  -18.7646   35.6668 C   0  0  0  0  0  0  0  0  0  0  0  0
   37.0668  -17.5349   35.9841 O   0  0  0  0  0  0  0  0  0  0  0  0
   35.5889  -18.9987   35.1554 O   0  0  0  0  0  0  0  0  0  0  0  0
   34.7265  -17.8666   34.9488 C   0  0  0  0  0  0  0  0  0  0  0  0
   33.3160  -18.1480   35.2792 C   0  0  0  0  0  0  0  0  0  0  0  0
   32.7359  -19.3627   34.8719 N   0  0  0  0  0  0  0  0  0  0  0  0
   31.8850  -19.4235   33.7704 C   0  0  0  0  0  0  0  0  0  0  0  0
   32.2422  -20.0650   36.0243 C   0  0  0  0  0  0  0  0  0  0  0  0
   31.5313  -21.3210   35.7167 C   0  0  0  0  0  0  0  0  0  0  0  0
   32.1467  -22.4617   35.2347 C   0  0  0  0  0  0  0  0  0  0  0  0
   31.4457  -23.6161   34.9598 C   0  0  0  0  0  0  0  0  0  0  0  0
   30.0810  -23.6352   35.1729 C   0  0  0  0  0  0  0  0  0  0  0  0
   29.4499  -22.5085   35.6528 C   0  0  0  0  0  0  0  0  0  0  0  0
   30.1665  -21.3778   35.9171 C   0  0  0  0  0  0  0  0  0  0  0  0
 20 21  1  0  0  0
 21 18  1  0  0  0
 18 19  2  0  0  0
 18  1  1  0  0  0
  1  2  1  0  0  0
  2  3  1  0  0  0
  2  4  2  0  0  0
  4  5  1  0  0  0
  5  6  1  0  0  0
  5  7  2  0  0  0
  7 22  1  0  0  0
 22 23  2  0  0  0
 22 24  1  0  0  0
 24 25  1  0  0  0
 25 26  1  0  0  0
 26 27  1  0  0  0
 27 28  1  0  0  0
 27 29  1  0  0  0
 29 30  1  0  0  0
 30 31  2  0  0  0
 31 32  1  0  0  0
 32 33  2  0  0  0
 33 34  1  0  0  0
 34 35  2  0  0  0
  7  8  1  0  0  0
  8  9  1  0  0  0
  9 10  2  0  0  0
 10 11  1  0  0  0
 11 12  2  0  0  0
 12 13  1  0  0  0
 13 15  1  0  0  0
 15 16  2  0  0  0
 15 17  1  0  0  0
 13 14  2  0  0  0
  8  1  1  0  0  0
 14  9  1  0  0  0
 35 30  1  0  0  0
M  CHG 1  15   1
M  CHG 1  17  -1
M  END
> <minimizedAffinity>
-4.70165

> <CNNscore>
0.1353274584

> <CNNaffinity>
4.6878433228

> <CNN_VS>
0.6343939304

> <CNNaffinity_variance>
0.8507725000

$$$$
[H]c1c([H])c([H])c(C([H])([H])N(C([H])([H])[H])C([H])([H])C([H])([H])OC(=O)C2=C(C([H])([H])[H])N=C(C([H])([H])[H])C([H])(C(=O)OC([H])([H])[H])C2([H])c2c([H])c([H])c([H])c([N+](=O)[O-])c2[H])c([H])c1[H]


 35 37  0  0  0  0  0  0  0  0999 V2000
   38.2898  -18.8333   35.5859 C   0  0  0  0  0  0  0  0  0  0  0  0
   39.2301  -19.2620   36.6265 C   0  0  0  0  0  0  0  0  0  0  0  0
   40.6818  -18.8556   36.4308 C   0  0  0  0  0  0  0  0  0  0  0  0
   38.9439  -19.9268   37.6545 N   0  0  0  0  0  0  0  0  0  0  0  0
   37.6156  -20.3391   37.9111 C   0  0  0  0  0  0  0  0  0  0  0  0
   37.3756  -21.1508   39.1567 C   0  0  0  0  0  0  0  0  0  0  0  0
   36.6601  -20.0195   37.0638 C   0  0  0  0  0  0  0  0  0  0  0  0
   36.9016  -19.1959   35.8368 C   0  0  0  0  0  0  0  0  0  0  0  0
   35.9884  -18.0147   35.8997 C   0  0  0  0  0  0  0  0  0  0  0  0
   34.7975  -17.9548   35.2302 C   0  0  0  0  0  0  0  0  0  0  0  0
   33.9671  -16.8566   35.3264 C   0  0  0  0  0  0  0  0  0  0  0  0
   34.3473  -15.7818   36.1231 C   0  0  0  0  0  0  0  0  0  0  0  0
   35.5521  -15.8337   36.8051 C   0  0  0  0  0  0  0  0  0  0  0  0
   36.3566  -16.9515   36.6831 C   0  0  0  0  0  0  0  0  0  0  0  0
   35.9186  -14.7258   37.6120 N   0  0  0  0  0  0  0  0  0  0  0  0
   35.0422  -13.9014   37.9157 O   0  0  0  0  0  0  0  0  0  0  0  0
   37.1907  -14.5263   38.0684 O   0  0  0  0  0  0  0  0  0  0  0  0
   38.8186  -19.4197   34.2953 C   0  0  0  0  0  0  0  0  0  0  0  0
   39.2233  -18.7159   33.3704 O   0  0  0  0  0  0  0  0  0  0  0  0
   40.0627  -21.4859   33.9626 C   0  0  0  0  0  0  0  0  0  0  0  0
   38.8365  -20.7942   34.1783 O   0  0  0  0  0  0  0  0  0  0  0  0
   35.2933  -20.4436   37.3223 C   0  0  0  0  0  0  0  0  0  0  0  0
   34.6413  -19.7950   38.2259 O   0  0  0  0  0  0  0  0  0  0  0  0
   34.5798  -21.4582   36.7281 O   0  0  0  0  0  0  0  0  0  0  0  0
   34.4515  -22.6980   37.4456 C   0  0  0  0  0  0  0  0  0  0  0  0
   33.6764  -23.7140   36.7076 C   0  0  0  0  0  0  0  0  0  0  0  0
   32.2814  -23.5773   36.5951 N   0  0  0  0  0  0  0  0  0  0  0  0
   31.4154  -24.4954   37.1853 C   0  0  0  0  0  0  0  0  0  0  0  0
   31.9424  -23.2522   35.2370 C   0  0  0  0  0  0  0  0  0  0  0  0
   31.4403  -21.8780   35.0442 C   0  0  0  0  0  0  0  0  0  0  0  0
   30.2577  -21.4027   35.5809 C   0  0  0  0  0  0  0  0  0  0  0  0
   29.8237  -20.1106   35.3769 C   0  0  0  0  0  0  0  0  0  0  0  0
   30.5962  -19.2601   34.6100 C   0  0  0  0  0  0  0  0  0  0  0  0
   31.7777  -19.7154   34.0669 C   0  0  0  0  0  0  0  0  0  0  0  0
   32.1853  -20.9994   34.2835 C   0  0  0  0  0  0  0  0  0  0  0  0
 20 21  1  0  0  0
 21 18  1  0  0  0
 18 19  2  0  0  0
 18  1  1  0  0  0
  1  2  1  0  0  0
  2  3  1  0  0  0
  2  4  2  0  0  0
  4  5  1  0  0  0
  5  6  1  0  0  0
  5  7  2  0  0  0
  7 22  1  0  0  0
 22 23  2  0  0  0
 22 24  1  0  0  0
 24 25  1  0  0  0
 25 26  1  0  0  0
 26 27  1  0  0  0
 27 28  1  0  0  0
 27 29  1  0  0  0
 29 30  1  0  0  0
 30 31  2  0  0  0
 31 32  1  0  0  0
 32 33  2  0  0  0
 33 34  1  0  0  0
 34 35  2  0  0  0
  7  8  1  0  0  0
  8  9  1  0  0  0
  9 10  2  0  0  0
 10 11  1  0  0  0
 11 12  2  0  0  0
 12 13  1  0  0  0
 13 15  1  0  0  0
 15 16  2  0  0  0
 15 17  1  0  0  0
 13 14  2  0  0  0
  8  1  1  0  0  0
 14  9  1  0  0  0
 35 30  1  0  0  0
M  CHG 1  15   1
M  CHG 1  17  -1
M  END
> <minimizedAffinity>
-6.56370

> <CNNscore>
0.1350198686

> <CNNaffinity>
5.0827741623

> <CNN_VS>
0.6862754822

> <CNNaffinity_variance>
0.7062381506

$$$$
[H]/C(=C(\[H])C([H])([H])C([H])([H])C([H])([H])C([H])([H])C([H])([H])C([H])([H])C([H])([H])C([H])([H])[H])C([H])([H])C([H])([H])C([H])([H])C([H])([H])C([H])([H])C([H])([H])C([H])([H])C(=O)c1nc2c([H])c([H])c([H])nc2o1


 28 29  0  0  0  0  0  0  0  0999 V2000
   35.2751   -9.0749   35.7017 C   0  0  0  0  0  0  0  0  0  0  0  0
   35.7801  -10.4344   35.6168 C   0  0  0  0  0  0  0  0  0  0  0  0
   35.0633  -11.6208   36.0793 C   0  0  0  0  0  0  0  0  0  0  0  0
   35.8241  -12.6700   36.8249 C   0  0  0  0  0  0  0  0  0  0  0  0
   34.9040  -13.8060   37.2029 C   0  0  0  0  0  0  0  0  0  0  0  0
   34.1040  -13.6358   38.1457 O   0  0  0  0  0  0  0  0  0  0  0  0
   34.9451  -15.0559   36.4969 C   0  0  0  0  0  0  0  0  0  0  0  0
   33.8803  -15.6875   35.9426 N   0  0  0  0  0  0  0  0  0  0  0  0
   34.2833  -16.8333   35.3626 C   0  0  0  0  0  0  0  0  0  0  0  0
   33.6914  -17.8546   34.6723 C   0  0  0  0  0  0  0  0  0  0  0  0
   34.4516  -18.9005   34.2143 C   0  0  0  0  0  0  0  0  0  0  0  0
   35.8112  -18.8990   34.4628 C   0  0  0  0  0  0  0  0  0  0  0  0
   36.4121  -17.8891   35.1483 N   0  0  0  0  0  0  0  0  0  0  0  0
   35.6581  -16.8710   35.5915 C   0  0  0  0  0  0  0  0  0  0  0  0
   36.0037  -15.7948   36.2682 O   0  0  0  0  0  0  0  0  0  0  0  0
   34.4139   -8.6130   36.8041 C   0  0  0  0  0  0  0  0  0  0  0  0
   33.1255   -7.9924   36.3864 C   0  0  0  0  0  0  0  0  0  0  0  0
   31.8940   -8.5720   37.0663 C   0  0  0  0  0  0  0  0  0  0  0  0
   31.3575  -10.8605   37.7022 C   0  0  0  0  0  0  0  0  0  0  0  0
   32.2322   -9.8885   37.6207 C   0  0  0  0  0  0  0  0  0  0  0  0
   29.9822  -10.7632   37.2673 C   0  0  0  0  0  0  0  0  0  0  0  0
   29.0300  -10.3414   38.3845 C   0  0  0  0  0  0  0  0  0  0  0  0
   27.8283  -11.2095   38.4482 C   0  0  0  0  0  0  0  0  0  0  0  0
   27.6312  -11.9280   39.7829 C   0  0  0  0  0  0  0  0  0  0  0  0
   28.7433  -11.6720   40.7267 C   0  0  0  0  0  0  0  0  0  0  0  0
   29.6864  -12.7568   41.0595 C   0  0  0  0  0  0  0  0  0  0  0  0
   29.3414  -15.1654   40.5603 C   0  0  0  0  0  0  0  0  0  0  0  0
   29.9055  -13.8632   40.1028 C   0  0  0  0  0  0  0  0  0  0  0  0
 27 28  1  0  0  0
 28 26  1  0  0  0
 26 25  1  0  0  0
 25 24  1  0  0  0
 24 23  1  0  0  0
 23 22  1  0  0  0
 22 21  1  0  0  0
 21 19  1  0  0  0
 19 20  2  0  0  0
 20 18  1  0  0  0
 18 17  1  0  0  0
 17 16  1  0  0  0
 16  1  1  0  0  0
  1  2  1  0  0  0
  2  3  1  0  0  0
  3  4  1  0  0  0
  4  5  1  0  0  0
  5  6  2  0  0  0
  5  7  1  0  0  0
  7  8  2  0  0  0
  8  9  1  0  0  0
  9 10  2  0  0  0
 10 11  1  0  0  0
 11 12  2  0  0  0
 12 13  1  0  0  0
 13 14  2  0  0  0
 14 15  1  0  0  0
 15  7  1  0  0  0
 14  9  1  0  0  0
M  END
> <minimizedAffinity>
-6.50532

> <CNNscore>
0.2892422378

> <CNNaffinity>
6.6195816994

> <CNN_VS>
1.9146625996

> <CNNaffinity_variance>
0.0468009748

$$$$
[H]/C(=C(\[H])C([H])([H])C([H])([H])C([H])([H])C([H])([H])C([H])([H])C([H])([H])C([H])([H])C([H])([H])[H])C([H])([H])C([H])([H])C([H])([H])C([H])([H])C([H])([H])C([H])([H])C([H])([H])C(=O)c1nc2c([H])c([H])c([H])nc2o1


 28 29  0  0  0  0  0  0  0  0999 V2000
   30.0138  -19.8995   34.4248 C   0  0  0  0  0  0  0  0  0  0  0  0
   29.4459  -20.2895   35.7037 C   0  0  0  0  0  0  0  0  0  0  0  0
   28.9680  -21.6314   36.0296 C   0  0  0  0  0  0  0  0  0  0  0  0
   29.6870  -22.4094   37.0849 C   0  0  0  0  0  0  0  0  0  0  0  0
   31.0455  -22.8332   36.5800 C   0  0  0  0  0  0  0  0  0  0  0  0
   31.1037  -23.6954   35.6795 O   0  0  0  0  0  0  0  0  0  0  0  0
   32.2462  -22.2603   37.1211 C   0  0  0  0  0  0  0  0  0  0  0  0
   33.4233  -22.1202   36.4618 N   0  0  0  0  0  0  0  0  0  0  0  0
   34.3317  -21.5455   37.2718 C   0  0  0  0  0  0  0  0  0  0  0  0
   35.6415  -21.1638   37.1766 C   0  0  0  0  0  0  0  0  0  0  0  0
   36.2645  -20.5853   38.2530 C   0  0  0  0  0  0  0  0  0  0  0  0
   35.5485  -20.3991   39.4205 C   0  0  0  0  0  0  0  0  0  0  0  0
   34.2453  -20.7744   39.5280 N   0  0  0  0  0  0  0  0  0  0  0  0
   33.6462  -21.3395   38.4682 C   0  0  0  0  0  0  0  0  0  0  0  0
   32.4123  -21.7798   38.3295 O   0  0  0  0  0  0  0  0  0  0  0  0
   31.4189  -19.4842   34.2710 C   0  0  0  0  0  0  0  0  0  0  0  0
   32.0503  -18.9144   35.4942 C   0  0  0  0  0  0  0  0  0  0  0  0
   33.4600  -18.3803   35.2887 C   0  0  0  0  0  0  0  0  0  0  0  0
   35.4000  -19.0268   33.9667 C   0  0  0  0  0  0  0  0  0  0  0  0
   34.1719  -19.2634   34.3569 C   0  0  0  0  0  0  0  0  0  0  0  0
   36.1911  -17.8946   34.3933 C   0  0  0  0  0  0  0  0  0  0  0  0
   37.3012  -18.2750   35.3710 C   0  0  0  0  0  0  0  0  0  0  0  0
   37.3784  -17.3359   36.5173 C   0  0  0  0  0  0  0  0  0  0  0  0
   36.0367  -17.0314   37.1832 C   0  0  0  0  0  0  0  0  0  0  0  0
   35.5460  -15.6722   36.8593 C   0  0  0  0  0  0  0  0  0  0  0  0
   36.4858  -14.6563   36.3482 C   0  0  0  0  0  0  0  0  0  0  0  0
   38.2034  -13.4527   37.6790 C   0  0  0  0  0  0  0  0  0  0  0  0
   36.8029  -13.4662   37.1672 C   0  0  0  0  0  0  0  0  0  0  0  0
 27 28  1  0  0  0
 28 26  1  0  0  0
 26 25  1  0  0  0
 25 24  1  0  0  0
 24 23  1  0  0  0
 23 22  1  0  0  0
 22 21  1  0  0  0
 21 19  1  0  0  0
 19 20  2  0  0  0
 20 18  1  0  0  0
 18 17  1  0  0  0
 17 16  1  0  0  0
 16  1  1  0  0  0
  1  2  1  0  0  0
  2  3  1  0  0  0
  3  4  1  0  0  0
  4  5  1  0  0  0
  5  6  2  0  0  0
  5  7  1  0  0  0
  7  8  2  0  0  0
  8  9  1  0  0  0
  9 10  2  0  0  0
 10 11  1  0  0  0
 11 12  2  0  0  0
 12 13  1  0  0  0
 13 14  2  0  0  0
 14 15  1  0  0  0
 15  7  1  0  0  0
 14  9  1  0  0  0
M  END
> <minimizedAffinity>
-5.14062

> <CNNscore>
0.2441149652

> <CNNaffinity>
5.3301277161

> <CNN_VS>
1.3011639118

> <CNNaffinity_variance>
0.4133250713

$$$$
[H]/C(=C(\[H])C([H])([H])C([H])([H])C([H])([H])C([H])([H])C([H])([H])C([H])([H])C([H])([H])C([H])([H])[H])C([H])([H])C([H])([H])C([H])([H])C([H])([H])C([H])([H])C([H])([H])C([H])([H])C(=O)c1nc2c([H])c([H])c([H])nc2o1


 28 29  0  0  0  0  0  0  0  0999 V2000
   30.4070  -19.4465   34.8480 C   0  0  0  0  0  0  0  0  0  0  0  0
   30.0928  -20.6368   35.6190 C   0  0  0  0  0  0  0  0  0  0  0  0
   30.9042  -21.8519   35.6453 C   0  0  0  0  0  0  0  0  0  0  0  0
   30.5617  -22.9187   36.6354 C   0  0  0  0  0  0  0  0  0  0  0  0
   31.3215  -22.6947   37.9210 C   0  0  0  0  0  0  0  0  0  0  0  0
   30.7361  -22.9053   39.0030 O   0  0  0  0  0  0  0  0  0  0  0  0
   32.6867  -22.2493   37.9041 C   0  0  0  0  0  0  0  0  0  0  0  0
   33.1321  -21.0455   38.3427 N   0  0  0  0  0  0  0  0  0  0  0  0
   34.4654  -20.9665   38.1761 C   0  0  0  0  0  0  0  0  0  0  0  0
   35.4399  -20.0385   38.4196 C   0  0  0  0  0  0  0  0  0  0  0  0
   36.7452  -20.3201   38.1059 C   0  0  0  0  0  0  0  0  0  0  0  0
   37.0495  -21.5464   37.5457 C   0  0  0  0  0  0  0  0  0  0  0  0
   36.0895  -22.4781   37.2985 N   0  0  0  0  0  0  0  0  0  0  0  0
   34.8157  -22.1913   37.6096 C   0  0  0  0  0  0  0  0  0  0  0  0
   33.7263  -22.9184   37.4677 O   0  0  0  0  0  0  0  0  0  0  0  0
   31.7657  -19.1475   34.3633 C   0  0  0  0  0  0  0  0  0  0  0  0
   32.6794  -18.5380   35.3700 C   0  0  0  0  0  0  0  0  0  0  0  0
   33.9438  -17.9243   34.7876 C   0  0  0  0  0  0  0  0  0  0  0  0
   36.2585  -18.6655   34.9369 C   0  0  0  0  0  0  0  0  0  0  0  0
   34.9939  -18.9492   34.7453 C   0  0  0  0  0  0  0  0  0  0  0  0
   36.7685  -17.3402   35.2080 C   0  0  0  0  0  0  0  0  0  0  0  0
   36.8979  -17.0427   36.7004 C   0  0  0  0  0  0  0  0  0  0  0  0
   36.1757  -15.8051   37.0854 C   0  0  0  0  0  0  0  0  0  0  0  0
   35.9461  -14.8189   35.9404 C   0  0  0  0  0  0  0  0  0  0  0  0
   35.5493  -13.4777   36.4269 C   0  0  0  0  0  0  0  0  0  0  0  0
   34.6445  -13.3568   37.5861 C   0  0  0  0  0  0  0  0  0  0  0  0
   32.4265  -12.9336   38.6210 C   0  0  0  0  0  0  0  0  0  0  0  0
   33.1857  -13.2375   37.3741 C   0  0  0  0  0  0  0  0  0  0  0  0
 27 28  1  0  0  0
 28 26  1  0  0  0
 26 25  1  0  0  0
 25 24  1  0  0  0
 24 23  1  0  0  0
 23 22  1  0  0  0
 22 21  1  0  0  0
 21 19  1  0  0  0
 19 20  2  0  0  0
 20 18  1  0  0  0
 18 17  1  0  0  0
 17 16  1  0  0  0
 16  1  1  0  0  0
  1  2  1  0  0  0
  2  3  1  0  0  0
  3  4  1  0  0  0
  4  5  1  0  0  0
  5  6  2  0  0  0
  5  7  1  0  0  0
  7  8  2  0  0  0
  8  9  1  0  0  0
  9 10  2  0  0  0
 10 11  1  0  0  0
 11 12  2  0  0  0
 12 13  1  0  0  0
 13 14  2  0  0  0
 14 15  1  0  0  0
 15  7  1  0  0  0
 14  9  1  0  0  0
M  END
> <minimizedAffinity>
-5.19480

> <CNNscore>
0.1769803911

> <CNNaffinity>
5.2415056229

> <CNN_VS>
0.9276437163

> <CNNaffinity_variance>
0.8252531886

$$$$
[H]/C(=C(\[H])C([H])([H])C([H])([H])C([H])([H])C([H])([H])C([H])([H])C([H])([H])C([H])([H])C([H])([H])[H])C([H])([H])C([H])([H])C([H])([H])C([H])([H])C([H])([H])C([H])([H])C([H])([H])C(=O)c1nc2c([H])c([H])c([H])nc2o1


 28 29  0  0  0  0  0  0  0  0999 V2000
   35.9686  -15.6193   36.6694 C   0  0  0  0  0  0  0  0  0  0  0  0
   34.6329  -15.4094   36.1382 C   0  0  0  0  0  0  0  0  0  0  0  0
   33.7721  -14.2761   36.4697 C   0  0  0  0  0  0  0  0  0  0  0  0
   34.1021  -13.4568   37.6761 C   0  0  0  0  0  0  0  0  0  0  0  0
   33.3472  -12.1497   37.6363 C   0  0  0  0  0  0  0  0  0  0  0  0
   33.9773  -11.1061   37.3688 O   0  0  0  0  0  0  0  0  0  0  0  0
   31.9362  -12.1033   37.8998 C   0  0  0  0  0  0  0  0  0  0  0  0
   31.3066  -12.6924   38.9470 N   0  0  0  0  0  0  0  0  0  0  0  0
   29.9854  -12.4441   38.8804 C   0  0  0  0  0  0  0  0  0  0  0  0
   28.8806  -12.7595   39.6222 C   0  0  0  0  0  0  0  0  0  0  0  0
   27.6445  -12.3115   39.2311 C   0  0  0  0  0  0  0  0  0  0  0  0
   27.5419  -11.5445   38.0859 C   0  0  0  0  0  0  0  0  0  0  0  0
   28.6331  -11.2239   37.3394 N   0  0  0  0  0  0  0  0  0  0  0  0
   29.8374  -11.6679   37.7319 C   0  0  0  0  0  0  0  0  0  0  0  0
   31.0229  -11.4925   37.1845 O   0  0  0  0  0  0  0  0  0  0  0  0
   36.7622  -16.8250   36.3747 C   0  0  0  0  0  0  0  0  0  0  0  0
   36.6514  -17.3328   34.9784 C   0  0  0  0  0  0  0  0  0  0  0  0
   37.6025  -18.4716   34.6417 C   0  0  0  0  0  0  0  0  0  0  0  0
   38.8579  -19.6084   36.3912 C   0  0  0  0  0  0  0  0  0  0  0  0
   37.7127  -19.3590   35.8058 C   0  0  0  0  0  0  0  0  0  0  0  0
   40.1274  -19.0551   35.9762 C   0  0  0  0  0  0  0  0  0  0  0  0
   40.8570  -19.9296   34.9585 C   0  0  0  0  0  0  0  0  0  0  0  0
   41.8417  -20.8318   35.6052 C   0  0  0  0  0  0  0  0  0  0  0  0
   41.7867  -22.2825   35.1269 C   0  0  0  0  0  0  0  0  0  0  0  0
   41.2963  -22.3953   33.7341 C   0  0  0  0  0  0  0  0  0  0  0  0
   42.1905  -22.9159   32.6823 C   0  0  0  0  0  0  0  0  0  0  0  0
   40.6042  -24.8169   32.4840 C   0  0  0  0  0  0  0  0  0  0  0  0
   41.8457  -24.1676   31.9738 C   0  0  0  0  0  0  0  0  0  0  0  0
 27 28  1  0  0  0
 28 26  1  0  0  0
 26 25  1  0  0  0
 25 24  1  0  0  0
 24 23  1  0  0  0
 23 22  1  0  0  0
 22 21  1  0  0  0
 21 19  1  0  0  0
 19 20  2  0  0  0
 20 18  1  0  0  0
 18 17  1  0  0  0
 17 16  1  0  0  0
 16  1  1  0  0  0
  1  2  1  0  0  0
  2  3  1  0  0  0
  3  4  1  0  0  0
  4  5  1  0  0  0
  5  6  2  0  0  0
  5  7  1  0  0  0
  7  8  2  0  0  0
  8  9  1  0  0  0
  9 10  2  0  0  0
 10 11  1  0  0  0
 11 12  2  0  0  0
 12 13  1  0  0  0
 13 14  2  0  0  0
 14 15  1  0  0  0
 15  7  1  0  0  0
 14  9  1  0  0  0
M  END
> <minimizedAffinity>
-5.48483

> <CNNscore>
0.1601351351

> <CNNaffinity>
5.2084884644

> <CNN_VS>
0.8340619802

> <CNNaffinity_variance>
0.2984740734

$$$$
[H]/C(=C(\[H])C([H])([H])C([H])([H])C([H])([H])C([H])([H])C([H])([H])C([H])([H])C([H])([H])C([H])([H])[H])C([H])([H])C([H])([H])C([H])([H])C([H])([H])C([H])([H])C([H])([H])C([H])([H])C(=O)c1nc2c([H])c([H])c([H])nc2o1


 28 29  0  0  0  0  0  0  0  0999 V2000
   37.1455  -14.6913   37.4860 C   0  0  0  0  0  0  0  0  0  0  0  0
   36.5265  -13.4047   37.2187 C   0  0  0  0  0  0  0  0  0  0  0  0
   35.2431  -13.2205   36.5448 C   0  0  0  0  0  0  0  0  0  0  0  0
   33.9875  -13.4338   37.3282 C   0  0  0  0  0  0  0  0  0  0  0  0
   33.2738  -12.1185   37.5302 C   0  0  0  0  0  0  0  0  0  0  0  0
   33.9315  -11.0626   37.4293 O   0  0  0  0  0  0  0  0  0  0  0  0
   31.8704  -12.0785   37.8323 C   0  0  0  0  0  0  0  0  0  0  0  0
   31.2710  -12.6782   38.8910 N   0  0  0  0  0  0  0  0  0  0  0  0
   29.9478  -12.4332   38.8623 C   0  0  0  0  0  0  0  0  0  0  0  0
   28.8643  -12.7580   39.6310 C   0  0  0  0  0  0  0  0  0  0  0  0
   27.6169  -12.3103   39.2773 C   0  0  0  0  0  0  0  0  0  0  0  0
   27.4812  -11.5340   38.1419 C   0  0  0  0  0  0  0  0  0  0  0  0
   28.5510  -11.2040   37.3689 N   0  0  0  0  0  0  0  0  0  0  0  0
   29.7667  -11.6477   37.7248 C   0  0  0  0  0  0  0  0  0  0  0  0
   30.9364  -11.4643   37.1471 O   0  0  0  0  0  0  0  0  0  0  0  0
   36.3669  -15.9322   37.6425 C   0  0  0  0  0  0  0  0  0  0  0  0
   36.6979  -17.0159   36.6751 C   0  0  0  0  0  0  0  0  0  0  0  0
   35.9063  -16.9689   35.3767 C   0  0  0  0  0  0  0  0  0  0  0  0
   33.5377  -17.5137   35.2268 C   0  0  0  0  0  0  0  0  0  0  0  0
   34.4902  -16.7432   35.6911 C   0  0  0  0  0  0  0  0  0  0  0  0
   33.7540  -18.6560   34.3675 C   0  0  0  0  0  0  0  0  0  0  0  0
   32.4578  -19.3583   33.9684 C   0  0  0  0  0  0  0  0  0  0  0  0
   31.4039  -19.2099   35.0022 C   0  0  0  0  0  0  0  0  0  0  0  0
   30.9892  -20.5150   35.6813 C   0  0  0  0  0  0  0  0  0  0  0  0
   32.1498  -21.3853   35.9790 C   0  0  0  0  0  0  0  0  0  0  0  0
   32.0110  -22.8509   35.8804 C   0  0  0  0  0  0  0  0  0  0  0  0
   30.0979  -24.0859   34.8884 C   0  0  0  0  0  0  0  0  0  0  0  0
   31.4308  -23.4568   34.6624 C   0  0  0  0  0  0  0  0  0  0  0  0
 27 28  1  0  0  0
 28 26  1  0  0  0
 26 25  1  0  0  0
 25 24  1  0  0  0
 24 23  1  0  0  0
 23 22  1  0  0  0
 22 21  1  0  0  0
 21 19  1  0  0  0
 19 20  2  0  0  0
 20 18  1  0  0  0
 18 17  1  0  0  0
 17 16  1  0  0  0
 16  1  1  0  0  0
  1  2  1  0  0  0
  2  3  1  0  0  0
  3  4  1  0  0  0
  4  5  1  0  0  0
  5  6  2  0  0  0
  5  7  1  0  0  0
  7  8  2  0  0  0
  8  9  1  0  0  0
  9 10  2  0  0  0
 10 11  1  0  0  0
 11 12  2  0  0  0
 12 13  1  0  0  0
 13 14  2  0  0  0
 14 15  1  0  0  0
 15  7  1  0  0  0
 14  9  1  0  0  0
M  END
> <minimizedAffinity>
-6.52966

> <CNNscore>
0.1550722122

> <CNNaffinity>
5.7887125015

> <CNN_VS>
0.8976684809

> <CNNaffinity_variance>
0.2917401791

$$$$
[H]/C(=C(\[H])C([H])([H])C([H])([H])C([H])([H])C([H])([H])C([H])([H])C([H])([H])C([H])([H])C([H])([H])[H])C([H])([H])C([H])([H])C([H])([H])C([H])([H])C([H])([H])C([H])([H])C([H])([H])C(=O)c1nc2c([H])c([H])c([H])nc2o1


 28 29  0  0  0  0  0  0  0  0999 V2000
   38.1764  -18.8464   34.5411 C   0  0  0  0  0  0  0  0  0  0  0  0
   37.1590  -17.8272   34.3506 C   0  0  0  0  0  0  0  0  0  0  0  0
   35.8159  -17.8717   34.9247 C   0  0  0  0  0  0  0  0  0  0  0  0
   34.7774  -18.7088   34.2491 C   0  0  0  0  0  0  0  0  0  0  0  0
   33.4059  -18.3526   34.7708 C   0  0  0  0  0  0  0  0  0  0  0  0
   33.1553  -17.1552   35.0179 O   0  0  0  0  0  0  0  0  0  0  0  0
   32.4092  -19.3653   34.9798 C   0  0  0  0  0  0  0  0  0  0  0  0
   31.1383  -19.1500   35.4019 N   0  0  0  0  0  0  0  0  0  0  0  0
   30.4834  -20.3228   35.4875 C   0  0  0  0  0  0  0  0  0  0  0  0
   29.2271  -20.7313   35.8410 C   0  0  0  0  0  0  0  0  0  0  0  0
   28.9068  -22.0646   35.8047 C   0  0  0  0  0  0  0  0  0  0  0  0
   29.8693  -22.9739   35.4083 C   0  0  0  0  0  0  0  0  0  0  0  0
   31.1225  -22.5803   35.0542 N   0  0  0  0  0  0  0  0  0  0  0  0
   31.4244  -21.2731   35.0936 C   0  0  0  0  0  0  0  0  0  0  0  0
   32.5515  -20.6564   34.8021 O   0  0  0  0  0  0  0  0  0  0  0  0
   38.8843  -19.4844   33.4176 C   0  0  0  0  0  0  0  0  0  0  0  0
   39.7422  -20.6458   33.7848 C   0  0  0  0  0  0  0  0  0  0  0  0
   41.2185  -20.4693   33.4621 C   0  0  0  0  0  0  0  0  0  0  0  0
   42.1789  -18.3202   34.0853 C   0  0  0  0  0  0  0  0  0  0  0  0
   41.4893  -19.0440   33.2385 C   0  0  0  0  0  0  0  0  0  0  0  0
   42.7473  -18.8202   35.3169 C   0  0  0  0  0  0  0  0  0  0  0  0
   42.0906  -18.2285   36.5624 C   0  0  0  0  0  0  0  0  0  0  0  0
   40.9050  -19.0110   36.9909 C   0  0  0  0  0  0  0  0  0  0  0  0
   41.1500  -20.5131   37.1322 C   0  0  0  0  0  0  0  0  0  0  0  0
   39.9310  -21.2429   37.5502 C   0  0  0  0  0  0  0  0  0  0  0  0
   38.9055  -20.5547   38.3573 C   0  0  0  0  0  0  0  0  0  0  0  0
   37.1329  -21.4439   36.8618 C   0  0  0  0  0  0  0  0  0  0  0  0
   37.5403  -20.3745   37.8178 C   0  0  0  0  0  0  0  0  0  0  0  0
 27 28  1  0  0  0
 28 26  1  0  0  0
 26 25  1  0  0  0
 25 24  1  0  0  0
 24 23  1  0  0  0
 23 22  1  0  0  0
 22 21  1  0  0  0
 21 19  1  0  0  0
 19 20  2  0  0  0
 20 18  1  0  0  0
 18 17  1  0  0  0
 17 16  1  0  0  0
 16  1  1  0  0  0
  1  2  1  0  0  0
  2  3  1  0  0  0
  3  4  1  0  0  0
  4  5  1  0  0  0
  5  6  2  0  0  0
  5  7  1  0  0  0
  7  8  2  0  0  0
  8  9  1  0  0  0
  9 10  2  0  0  0
 10 11  1  0  0  0
 11 12  2  0  0  0
 12 13  1  0  0  0
 13 14  2  0  0  0
 14 15  1  0  0  0
 15  7  1  0  0  0
 14  9  1  0  0  0
M  END
> <minimizedAffinity>
-4.53500

> <CNNscore>
0.1538023800

> <CNNaffinity>
5.0142521858

> <CNN_VS>
0.7712039351

> <CNNaffinity_variance>
0.4046412408

$$$$
[H]/C(=C(\[H])C([H])([H])C([H])([H])C([H])([H])C([H])([H])C([H])([H])C([H])([H])C([H])([H])C([H])([H])[H])C([H])([H])C([H])([H])C([H])([H])C([H])([H])C([H])([H])C([H])([H])C([H])([H])C(=O)c1nc2c([H])c([H])c([H])nc2o1


 28 29  0  0  0  0  0  0  0  0999 V2000
   33.0824  -21.8339   35.7752 C   0  0  0  0  0  0  0  0  0  0  0  0
   32.3709  -21.4769   34.5601 C   0  0  0  0  0  0  0  0  0  0  0  0
   32.4379  -20.1712   33.9073 C   0  0  0  0  0  0  0  0  0  0  0  0
   33.5574  -19.2483   34.2685 C   0  0  0  0  0  0  0  0  0  0  0  0
   33.0893  -18.2433   35.2937 C   0  0  0  0  0  0  0  0  0  0  0  0
   31.9151  -18.3202   35.7099 O   0  0  0  0  0  0  0  0  0  0  0  0
   33.9713  -17.2203   35.7815 C   0  0  0  0  0  0  0  0  0  0  0  0
   35.1603  -17.4290   36.4001 N   0  0  0  0  0  0  0  0  0  0  0  0
   35.7181  -16.2472   36.7224 C   0  0  0  0  0  0  0  0  0  0  0  0
   36.8668  -15.8295   37.3356 C   0  0  0  0  0  0  0  0  0  0  0  0
   37.1072  -14.4885   37.4953 C   0  0  0  0  0  0  0  0  0  0  0  0
   36.1750  -13.5810   37.0288 C   0  0  0  0  0  0  0  0  0  0  0  0
   35.0285  -13.9836   36.4171 N   0  0  0  0  0  0  0  0  0  0  0  0
   34.8040  -15.2983   36.2664 C   0  0  0  0  0  0  0  0  0  0  0  0
   33.7841  -15.9244   35.7156 O   0  0  0  0  0  0  0  0  0  0  0  0
   32.6219  -21.4305   37.1152 C   0  0  0  0  0  0  0  0  0  0  0  0
   33.1775  -22.2277   38.2445 C   0  0  0  0  0  0  0  0  0  0  0  0
   33.9827  -21.4214   39.2526 C   0  0  0  0  0  0  0  0  0  0  0  0
   36.0065  -20.5692   38.2003 C   0  0  0  0  0  0  0  0  0  0  0  0
   34.7520  -20.3967   38.5362 C   0  0  0  0  0  0  0  0  0  0  0  0
   36.7741  -21.7608   38.4848 C   0  0  0  0  0  0  0  0  0  0  0  0
   37.2842  -22.4585   37.2255 C   0  0  0  0  0  0  0  0  0  0  0  0
   38.7666  -22.4920   37.1701 C   0  0  0  0  0  0  0  0  0  0  0  0
   39.4635  -21.9170   38.4030 C   0  0  0  0  0  0  0  0  0  0  0  0
   39.7328  -20.4669   38.2694 C   0  0  0  0  0  0  0  0  0  0  0  0
   39.8960  -19.8723   36.9291 C   0  0  0  0  0  0  0  0  0  0  0  0
   38.0655  -19.2970   35.3518 C   0  0  0  0  0  0  0  0  0  0  0  0
   38.9493  -18.8368   36.4610 C   0  0  0  0  0  0  0  0  0  0  0  0
 27 28  1  0  0  0
 28 26  1  0  0  0
 26 25  1  0  0  0
 25 24  1  0  0  0
 24 23  1  0  0  0
 23 22  1  0  0  0
 22 21  1  0  0  0
 21 19  1  0  0  0
 19 20  2  0  0  0
 20 18  1  0  0  0
 18 17  1  0  0  0
 17 16  1  0  0  0
 16  1  1  0  0  0
  1  2  1  0  0  0
  2  3  1  0  0  0
  3  4  1  0  0  0
  4  5  1  0  0  0
  5  6  2  0  0  0
  5  7  1  0  0  0
  7  8  2  0  0  0
  8  9  1  0  0  0
  9 10  2  0  0  0
 10 11  1  0  0  0
 11 12  2  0  0  0
 12 13  1  0  0  0
 13 14  2  0  0  0
 14 15  1  0  0  0
 15  7  1  0  0  0
 14  9  1  0  0  0
M  END
> <minimizedAffinity>
-4.55079

> <CNNscore>
0.1529740691

> <CNNaffinity>
5.2658677101

> <CNN_VS>
0.8055412173

> <CNNaffinity_variance>
0.3569509983

$$$$
[H]/C(=C(\[H])C([H])([H])C([H])([H])C([H])([H])C([H])([H])C([H])([H])C([H])([H])C([H])([H])C([H])([H])[H])C([H])([H])C([H])([H])C([H])([H])C([H])([H])C([H])([H])C([H])([H])C([H])([H])C(=O)c1nc2c([H])c([H])c([H])nc2o1


 28 29  0  0  0  0  0  0  0  0999 V2000
   37.1369  -17.7209   36.3234 C   0  0  0  0  0  0  0  0  0  0  0  0
   36.5147  -16.7584   37.2160 C   0  0  0  0  0  0  0  0  0  0  0  0
   36.3587  -15.3341   36.9289 C   0  0  0  0  0  0  0  0  0  0  0  0
   35.0629  -14.8587   36.3540 C   0  0  0  0  0  0  0  0  0  0  0  0
   34.7806  -13.4476   36.8114 C   0  0  0  0  0  0  0  0  0  0  0  0
   35.6971  -12.6035   36.7386 O   0  0  0  0  0  0  0  0  0  0  0  0
   33.4886  -13.0805   37.3198 C   0  0  0  0  0  0  0  0  0  0  0  0
   33.0200  -13.3541   38.5630 N   0  0  0  0  0  0  0  0  0  0  0  0
   31.7737  -12.8637   38.6966 C   0  0  0  0  0  0  0  0  0  0  0  0
   30.8242  -12.8286   39.6801 C   0  0  0  0  0  0  0  0  0  0  0  0
   29.6200  -12.2150   39.4456 C   0  0  0  0  0  0  0  0  0  0  0  0
   29.3908  -11.6405   38.2096 C   0  0  0  0  0  0  0  0  0  0  0  0
   30.3271  -11.6686   37.2230 N   0  0  0  0  0  0  0  0  0  0  0  0
   31.5017  -12.2718   37.4639 C   0  0  0  0  0  0  0  0  0  0  0  0
   32.5494  -12.4264   36.6804 O   0  0  0  0  0  0  0  0  0  0  0  0
   36.9972  -17.6541   34.8584 C   0  0  0  0  0  0  0  0  0  0  0  0
   36.2230  -18.7682   34.2427 C   0  0  0  0  0  0  0  0  0  0  0  0
   34.8663  -19.0250   34.8817 C   0  0  0  0  0  0  0  0  0  0  0  0
   32.7024  -18.0864   34.2769 C   0  0  0  0  0  0  0  0  0  0  0  0
   33.9695  -17.9087   34.5584 C   0  0  0  0  0  0  0  0  0  0  0  0
   32.0419  -19.3721   34.2498 C   0  0  0  0  0  0  0  0  0  0  0  0
   30.7520  -19.3994   35.0671 C   0  0  0  0  0  0  0  0  0  0  0  0
   30.1037  -20.7338   35.0385 C   0  0  0  0  0  0  0  0  0  0  0  0
   29.3743  -21.1156   36.3263 C   0  0  0  0  0  0  0  0  0  0  0  0
   28.3448  -22.1559   36.1000 C   0  0  0  0  0  0  0  0  0  0  0  0
   28.3821  -23.4062   36.8824 C   0  0  0  0  0  0  0  0  0  0  0  0
   29.5154  -24.6901   35.0832 C   0  0  0  0  0  0  0  0  0  0  0  0
   29.3687  -24.4563   36.5486 C   0  0  0  0  0  0  0  0  0  0  0  0
 27 28  1  0  0  0
 28 26  1  0  0  0
 26 25  1  0  0  0
 25 24  1  0  0  0
 24 23  1  0  0  0
 23 22  1  0  0  0
 22 21  1  0  0  0
 21 19  1  0  0  0
 19 20  2  0  0  0
 20 18  1  0  0  0
 18 17  1  0  0  0
 17 16  1  0  0  0
 16  1  1  0  0  0
  1  2  1  0  0  0
  2  3  1  0  0  0
  3  4  1  0  0  0
  4  5  1  0  0  0
  5  6  2  0  0  0
  5  7  1  0  0  0
  7  8  2  0  0  0
  8  9  1  0  0  0
  9 10  2  0  0  0
 10 11  1  0  0  0
 11 12  2  0  0  0
 12 13  1  0  0  0
 13 14  2  0  0  0
 14 15  1  0  0  0
 15  7  1  0  0  0
 14  9  1  0  0  0
M  END
> <minimizedAffinity>
-5.90795

> <CNNscore>
0.1515856087

> <CNNaffinity>
5.6806540489

> <CNN_VS>
0.8611053824

> <CNNaffinity_variance>
0.1760990918

$$$$
[H]/C(=C(\[H])C([H])([H])C([H])([H])C([H])([H])C([H])([H])C([H])([H])C([H])([H])C([H])([H])C([H])([H])[H])C([H])([H])C([H])([H])C([H])([H])C([H])([H])C([H])([H])C([H])([H])C([H])([H])C(=O)c1nc2c([H])c([H])c([H])nc2o1


 28 29  0  0  0  0  0  0  0  0999 V2000
   34.5737  -10.2778   36.7847 C   0  0  0  0  0  0  0  0  0  0  0  0
   34.8622  -11.6633   36.4571 C   0  0  0  0  0  0  0  0  0  0  0  0
   34.5283  -12.8073   37.3027 C   0  0  0  0  0  0  0  0  0  0  0  0
   35.4902  -13.9500   37.3715 C   0  0  0  0  0  0  0  0  0  0  0  0
   34.9576  -15.1230   36.5837 C   0  0  0  0  0  0  0  0  0  0  0  0
   33.8324  -15.0221   36.0529 O   0  0  0  0  0  0  0  0  0  0  0  0
   35.7244  -16.3293   36.4457 C   0  0  0  0  0  0  0  0  0  0  0  0
   36.4798  -16.6688   35.3715 N   0  0  0  0  0  0  0  0  0  0  0  0
   37.0581  -17.8656   35.5830 C   0  0  0  0  0  0  0  0  0  0  0  0
   37.8964  -18.6958   34.8914 C   0  0  0  0  0  0  0  0  0  0  0  0
   38.2913  -19.8858   35.4476 C   0  0  0  0  0  0  0  0  0  0  0  0
   37.8293  -20.2227   36.7059 C   0  0  0  0  0  0  0  0  0  0  0  0
   36.9953  -19.4057   37.4042 N   0  0  0  0  0  0  0  0  0  0  0  0
   36.6156  -18.2438   36.8499 C   0  0  0  0  0  0  0  0  0  0  0  0
   35.8267  -17.2998   37.3213 O   0  0  0  0  0  0  0  0  0  0  0  0
   33.5514   -9.8895   37.7719 C   0  0  0  0  0  0  0  0  0  0  0  0
   32.5358   -8.9144   37.2846 C   0  0  0  0  0  0  0  0  0  0  0  0
   31.1192   -9.4633   37.2037 C   0  0  0  0  0  0  0  0  0  0  0  0
   30.0322  -11.5464   37.8428 C   0  0  0  0  0  0  0  0  0  0  0  0
   31.1321  -10.8743   37.6083 C   0  0  0  0  0  0  0  0  0  0  0  0
   28.6988  -10.9982   37.7355 C   0  0  0  0  0  0  0  0  0  0  0  0
   28.2268  -10.3175   39.0186 C   0  0  0  0  0  0  0  0  0  0  0  0
   27.0815  -11.0298   39.6371 C   0  0  0  0  0  0  0  0  0  0  0  0
   27.3192  -11.4912   41.0748 C   0  0  0  0  0  0  0  0  0  0  0  0
   27.9716  -12.8192   41.1367 C   0  0  0  0  0  0  0  0  0  0  0  0
   29.2934  -12.9571   41.7775 C   0  0  0  0  0  0  0  0  0  0  0  0
   29.7656  -15.1064   42.9296 C   0  0  0  0  0  0  0  0  0  0  0  0
   29.4160  -13.6638   43.0710 C   0  0  0  0  0  0  0  0  0  0  0  0
 27 28  1  0  0  0
 28 26  1  0  0  0
 26 25  1  0  0  0
 25 24  1  0  0  0
 24 23  1  0  0  0
 23 22  1  0  0  0
 22 21  1  0  0  0
 21 19  1  0  0  0
 19 20  2  0  0  0
 20 18  1  0  0  0
 18 17  1  0  0  0
 17 16  1  0  0  0
 16  1  1  0  0  0
  1  2  1  0  0  0
  2  3  1  0  0  0
  3  4  1  0  0  0
  4  5  1  0  0  0
  5  6  2  0  0  0
  5  7  1  0  0  0
  7  8  2  0  0  0
  8  9  1  0  0  0
  9 10  2  0  0  0
 10 11  1  0  0  0
 11 12  2  0  0  0
 12 13  1  0  0  0
 13 14  2  0  0  0
 14 15  1  0  0  0
 15  7  1  0  0  0
 14  9  1  0  0  0
M  END
> <minimizedAffinity>
-5.91902

> <CNNscore>
0.1432534009

> <CNNaffinity>
5.5147867203

> <CNN_VS>
0.7900119424

> <CNNaffinity_variance>
0.5291999578

$$$$
[H]c1c([H])c([H])c(C([H])([H])C([H])([H])C([H])([H])[H])c(OC([H])(C2=NC([H])([H])C([H])([H])N2[H])C([H])([H])[H])c1[H]


 18 19  0  0  0  0  0  0  0  0999 V2000
   34.8617  -14.2408   36.6069 C   0  0  0  0  0  0  0  0  0  0  0  0
   35.7755  -13.3000   37.0268 C   0  0  0  0  0  0  0  0  0  0  0  0
   37.0448  -13.6429   37.4423 C   0  0  0  0  0  0  0  0  0  0  0  0
   37.4428  -14.9635   37.4487 C   0  0  0  0  0  0  0  0  0  0  0  0
   36.5432  -15.9201   37.0320 C   0  0  0  0  0  0  0  0  0  0  0  0
   35.2754  -15.5788   36.6172 C   0  0  0  0  0  0  0  0  0  0  0  0
   33.5027  -13.9176   36.1636 C   0  0  0  0  0  0  0  0  0  0  0  0
   32.5303  -13.1682   38.3319 C   0  0  0  0  0  0  0  0  0  0  0  0
   32.9055  -12.7409   36.9075 C   0  0  0  0  0  0  0  0  0  0  0  0
   34.3615  -16.4955   36.1987 O   0  0  0  0  0  0  0  0  0  0  0  0
   34.5670  -17.7885   35.7571 C   0  0  0  0  0  0  0  0  0  0  0  0
   35.3192  -17.8882   34.4675 C   0  0  0  0  0  0  0  0  0  0  0  0
   33.2659  -18.5472   35.6229 C   0  0  0  0  0  0  0  0  0  0  0  0
   33.0714  -19.6825   36.1836 N   0  0  0  0  0  0  0  0  0  0  0  0
   31.7592  -20.1773   35.8931 C   0  0  0  0  0  0  0  0  0  0  0  0
   31.2228  -19.2612   34.8163 C   0  0  0  0  0  0  0  0  0  0  0  0
   32.1247  -18.1410   34.8959 N   0  0  0  0  0  0  0  0  0  0  0  0
   31.9631  -17.1749   34.4813 H   0  0  0  0  0  0  0  0  0  0  0  0
  8  9  1  0  0  0
  9  7  1  0  0  0
  7  1  1  0  0  0
  1  2  2  0  0  0
  2  3  1  0  0  0
  3  4  2  0  0  0
  4  5  1  0  0  0
  5  6  2  0  0  0
  6 10  1  0  0  0
 10 11  1  0  0  0
 11 12  1  0  0  0
 11 13  1  0  0  0
 13 14  2  0  0  0
 14 15  1  0  0  0
 15 16  1  0  0  0
 16 17  1  0  0  0
  6  1  1  0  0  0
 17 13  1  0  0  0
 17 18  1  0  0  0
M  END
> <minimizedAffinity>
-6.04823

> <CNNscore>
0.8041790724

> <CNNaffinity>
4.4171323776

> <CNN_VS>
3.5521655083

> <CNNaffinity_variance>
0.5560994148

$$$$
[H]c1c([H])c([H])c(C([H])([H])C([H])([H])C([H])([H])[H])c(OC([H])(C2=NC([H])([H])C([H])([H])N2[H])C([H])([H])[H])c1[H]


 18 19  0  0  0  0  0  0  0  0999 V2000
   35.6866  -14.3446   36.9361 C   0  0  0  0  0  0  0  0  0  0  0  0
   35.1974  -13.1227   37.3411 C   0  0  0  0  0  0  0  0  0  0  0  0
   33.9278  -12.6949   37.0148 C   0  0  0  0  0  0  0  0  0  0  0  0
   33.0958  -13.4944   36.2591 C   0  0  0  0  0  0  0  0  0  0  0  0
   33.5666  -14.7209   35.8442 C   0  0  0  0  0  0  0  0  0  0  0  0
   34.8342  -15.1490   36.1693 C   0  0  0  0  0  0  0  0  0  0  0  0
   37.0307  -14.8327   37.2573 C   0  0  0  0  0  0  0  0  0  0  0  0
   38.6657  -12.9525   37.2685 C   0  0  0  0  0  0  0  0  0  0  0  0
   37.8078  -13.8781   38.1400 C   0  0  0  0  0  0  0  0  0  0  0  0
   35.3321  -16.3530   35.7780 O   0  0  0  0  0  0  0  0  0  0  0  0
   35.0386  -17.6135   36.2618 C   0  0  0  0  0  0  0  0  0  0  0  0
   36.2394  -18.4436   36.5904 C   0  0  0  0  0  0  0  0  0  0  0  0
   34.1567  -18.3874   35.3080 C   0  0  0  0  0  0  0  0  0  0  0  0
   32.8994  -18.1659   35.2013 N   0  0  0  0  0  0  0  0  0  0  0  0
   32.3081  -19.0369   34.2305 C   0  0  0  0  0  0  0  0  0  0  0  0
   33.3811  -20.0523   33.9076 C   0  0  0  0  0  0  0  0  0  0  0  0
   34.5634  -19.4200   34.4338 N   0  0  0  0  0  0  0  0  0  0  0  0
   35.5688  -19.6818   34.2062 H   0  0  0  0  0  0  0  0  0  0  0  0
  8  9  1  0  0  0
  9  7  1  0  0  0
  7  1  1  0  0  0
  1  2  2  0  0  0
  2  3  1  0  0  0
  3  4  2  0  0  0
  4  5  1  0  0  0
  5  6  2  0  0  0
  6 10  1  0  0  0
 10 11  1  0  0  0
 11 12  1  0  0  0
 11 13  1  0  0  0
 13 14  2  0  0  0
 14 15  1  0  0  0
 15 16  1  0  0  0
 16 17  1  0  0  0
  6  1  1  0  0  0
 17 13  1  0  0  0
 17 18  1  0  0  0
M  END
> <minimizedAffinity>
-5.92509

> <CNNscore>
0.7732162476

> <CNNaffinity>
4.4313673973

> <CNN_VS>
3.4264051914

> <CNNaffinity_variance>
0.4520225525

$$$$
[H]c1c([H])c([H])c(C([H])([H])C([H])([H])C([H])([H])[H])c(OC([H])(C2=NC([H])([H])C([H])([H])N2[H])C([H])([H])[H])c1[H]


 18 19  0  0  0  0  0  0  0  0999 V2000
   32.6107  -10.0568   37.4529 C   0  0  0  0  0  0  0  0  0  0  0  0
   31.4009   -9.3996   37.4813 C   0  0  0  0  0  0  0  0  0  0  0  0
   30.2105  -10.0609   37.6984 C   0  0  0  0  0  0  0  0  0  0  0  0
   30.1979  -11.4257   37.8975 C   0  0  0  0  0  0  0  0  0  0  0  0
   31.3981  -12.1017   37.8730 C   0  0  0  0  0  0  0  0  0  0  0  0
   32.5873  -11.4424   37.6561 C   0  0  0  0  0  0  0  0  0  0  0  0
   33.8956   -9.3915   37.2199 C   0  0  0  0  0  0  0  0  0  0  0  0
   35.0488   -7.8845   35.6050 C   0  0  0  0  0  0  0  0  0  0  0  0
   33.7614   -8.1223   36.4040 C   0  0  0  0  0  0  0  0  0  0  0  0
   33.7904  -12.0764   37.6259 O   0  0  0  0  0  0  0  0  0  0  0  0
   34.3514  -12.8285   36.6116 C   0  0  0  0  0  0  0  0  0  0  0  0
   33.4767  -13.9318   36.1051 C   0  0  0  0  0  0  0  0  0  0  0  0
   35.6854  -13.4117   37.0198 C   0  0  0  0  0  0  0  0  0  0  0  0
   35.7844  -14.5059   37.6787 N   0  0  0  0  0  0  0  0  0  0  0  0
   37.1568  -14.8264   37.9329 C   0  0  0  0  0  0  0  0  0  0  0  0
   37.9301  -13.5897   37.5340 C   0  0  0  0  0  0  0  0  0  0  0  0
   36.9610  -12.8671   36.7510 N   0  0  0  0  0  0  0  0  0  0  0  0
   37.1659  -12.0633   36.0853 H   0  0  0  0  0  0  0  0  0  0  0  0
  8  9  1  0  0  0
  9  7  1  0  0  0
  7  1  1  0  0  0
  1  2  2  0  0  0
  2  3  1  0  0  0
  3  4  2  0  0  0
  4  5  1  0  0  0
  5  6  2  0  0  0
  6 10  1  0  0  0
 10 11  1  0  0  0
 11 12  1  0  0  0
 11 13  1  0  0  0
 13 14  2  0  0  0
 14 15  1  0  0  0
 15 16  1  0  0  0
 16 17  1  0  0  0
  6  1  1  0  0  0
 17 13  1  0  0  0
 17 18  1  0  0  0
M  END
> <minimizedAffinity>
-7.57672

> <CNNscore>
0.7414789796

> <CNNaffinity>
5.6226911545

> <CNN_VS>
4.1691074371

> <CNNaffinity_variance>
0.1569827199

$$$$
[H]c1c([H])c([H])c(C([H])([H])C([H])([H])C([H])([H])[H])c(OC([H])(C2=NC([H])([H])C([H])([H])N2[H])C([H])([H])[H])c1[H]


 18 19  0  0  0  0  0  0  0  0999 V2000
   35.8732  -16.2277   36.7075 C   0  0  0  0  0  0  0  0  0  0  0  0
   34.8520  -15.4552   36.2007 C   0  0  0  0  0  0  0  0  0  0  0  0
   33.7630  -16.0063   35.5589 C   0  0  0  0  0  0  0  0  0  0  0  0
   33.6638  -17.3733   35.4039 C   0  0  0  0  0  0  0  0  0  0  0  0
   34.6753  -18.1637   35.9043 C   0  0  0  0  0  0  0  0  0  0  0  0
   35.7632  -17.6144   36.5450 C   0  0  0  0  0  0  0  0  0  0  0  0
   37.0488  -15.6803   37.3904 C   0  0  0  0  0  0  0  0  0  0  0  0
   38.1420  -13.4467   37.5477 C   0  0  0  0  0  0  0  0  0  0  0  0
   36.8599  -14.2416   37.8249 C   0  0  0  0  0  0  0  0  0  0  0  0
   36.7796  -18.3632   37.0520 O   0  0  0  0  0  0  0  0  0  0  0  0
   37.2988  -19.5548   36.5833 C   0  0  0  0  0  0  0  0  0  0  0  0
   38.0482  -20.3470   37.6078 C   0  0  0  0  0  0  0  0  0  0  0  0
   38.1922  -19.3416   35.3821 C   0  0  0  0  0  0  0  0  0  0  0  0
   37.9001  -19.7937   34.2196 N   0  0  0  0  0  0  0  0  0  0  0  0
   38.9149  -19.4513   33.2688 C   0  0  0  0  0  0  0  0  0  0  0  0
   40.0591  -18.9064   34.0938 C   0  0  0  0  0  0  0  0  0  0  0  0
   39.4223  -18.6472   35.3594 N   0  0  0  0  0  0  0  0  0  0  0  0
   39.8076  -18.0395   36.1426 H   0  0  0  0  0  0  0  0  0  0  0  0
  8  9  1  0  0  0
  9  7  1  0  0  0
  7  1  1  0  0  0
  1  2  2  0  0  0
  2  3  1  0  0  0
  3  4  2  0  0  0
  4  5  1  0  0  0
  5  6  2  0  0  0
  6 10  1  0  0  0
 10 11  1  0  0  0
 11 12  1  0  0  0
 11 13  1  0  0  0
 13 14  2  0  0  0
 14 15  1  0  0  0
 15 16  1  0  0  0
 16 17  1  0  0  0
  6  1  1  0  0  0
 17 13  1  0  0  0
 17 18  1  0  0  0
M  END
> <minimizedAffinity>
-5.58899

> <CNNscore>
0.7373102903

> <CNNaffinity>
4.0609288216

> <CNN_VS>
2.9941647053

> <CNNaffinity_variance>
0.5584281683

$$$$
[H]c1c([H])c([H])c(C([H])([H])C([H])([H])C([H])([H])[H])c(OC([H])(C2=NC([H])([H])C([H])([H])N2[H])C([H])([H])[H])c1[H]


 18 19  0  0  0  0  0  0  0  0999 V2000
   34.5253  -18.0594   34.5687 C   0  0  0  0  0  0  0  0  0  0  0  0
   35.2192  -19.1966   34.2202 C   0  0  0  0  0  0  0  0  0  0  0  0
   36.5892  -19.2890   34.3469 C   0  0  0  0  0  0  0  0  0  0  0  0
   37.3171  -18.2244   34.8361 C   0  0  0  0  0  0  0  0  0  0  0  0
   36.6412  -17.0774   35.1906 C   0  0  0  0  0  0  0  0  0  0  0  0
   35.2733  -16.9840   35.0643 C   0  0  0  0  0  0  0  0  0  0  0  0
   33.0716  -17.9200   34.4440 C   0  0  0  0  0  0  0  0  0  0  0  0
   30.9659  -19.1321   34.9965 C   0  0  0  0  0  0  0  0  0  0  0  0
   32.3152  -18.6441   35.5384 C   0  0  0  0  0  0  0  0  0  0  0  0
   34.5729  -15.8686   35.4047 O   0  0  0  0  0  0  0  0  0  0  0  0
   34.5435  -15.1952   36.6108 C   0  0  0  0  0  0  0  0  0  0  0  0
   33.4764  -14.1509   36.7089 C   0  0  0  0  0  0  0  0  0  0  0  0
   35.8782  -14.5603   36.9296 C   0  0  0  0  0  0  0  0  0  0  0  0
   36.5694  -14.8920   37.9560 N   0  0  0  0  0  0  0  0  0  0  0  0
   37.7850  -14.1374   38.0185 C   0  0  0  0  0  0  0  0  0  0  0  0
   37.6332  -13.0592   36.9693 C   0  0  0  0  0  0  0  0  0  0  0  0
   36.5335  -13.5557   36.1829 N   0  0  0  0  0  0  0  0  0  0  0  0
   36.2594  -13.2264   35.2094 H   0  0  0  0  0  0  0  0  0  0  0  0
  8  9  1  0  0  0
  9  7  1  0  0  0
  7  1  1  0  0  0
  1  2  2  0  0  0
  2  3  1  0  0  0
  3  4  2  0  0  0
  4  5  1  0  0  0
  5  6  2  0  0  0
  6 10  1  0  0  0
 10 11  1  0  0  0
 11 12  1  0  0  0
 11 13  1  0  0  0
 13 14  2  0  0  0
 14 15  1  0  0  0
 15 16  1  0  0  0
 16 17  1  0  0  0
  6  1  1  0  0  0
 17 13  1  0  0  0
 17 18  1  0  0  0
M  END
> <minimizedAffinity>
-4.86940

> <CNNscore>
0.6920742393

> <CNNaffinity>
4.5491333008

> <CNN_VS>
3.1483380795

> <CNNaffinity_variance>
0.3147860765

$$$$
[H]c1c([H])c([H])c(C([H])([H])C([H])([H])C([H])([H])[H])c(OC([H])(C2=NC([H])([H])C([H])([H])N2[H])C([H])([H])[H])c1[H]


 18 19  0  0  0  0  0  0  0  0999 V2000
   34.6209  -16.3110   35.9244 C   0  0  0  0  0  0  0  0  0  0  0  0
   34.1517  -15.0728   36.3024 C   0  0  0  0  0  0  0  0  0  0  0  0
   34.8381  -14.2648   37.1841 C   0  0  0  0  0  0  0  0  0  0  0  0
   36.0374  -14.6821   37.7225 C   0  0  0  0  0  0  0  0  0  0  0  0
   36.5241  -15.9180   37.3568 C   0  0  0  0  0  0  0  0  0  0  0  0
   35.8395  -16.7257   36.4766 C   0  0  0  0  0  0  0  0  0  0  0  0
   33.9191  -17.2010   34.9952 C   0  0  0  0  0  0  0  0  0  0  0  0
   32.1493  -18.9188   34.6410 C   0  0  0  0  0  0  0  0  0  0  0  0
   32.9213  -18.1060   35.6878 C   0  0  0  0  0  0  0  0  0  0  0  0
   36.2896  -17.9506   36.0924 O   0  0  0  0  0  0  0  0  0  0  0  0
   37.3590  -18.2671   35.2769 C   0  0  0  0  0  0  0  0  0  0  0  0
   37.0146  -19.1579   34.1251 C   0  0  0  0  0  0  0  0  0  0  0  0
   38.4914  -18.8950   36.0578 C   0  0  0  0  0  0  0  0  0  0  0  0
   38.2921  -19.7574   36.9840 N   0  0  0  0  0  0  0  0  0  0  0  0
   39.5322  -20.1861   37.5579 C   0  0  0  0  0  0  0  0  0  0  0  0
   40.5716  -19.2400   37.0002 C   0  0  0  0  0  0  0  0  0  0  0  0
   39.8712  -18.6397   35.8941 N   0  0  0  0  0  0  0  0  0  0  0  0
   40.3123  -18.0982   35.0919 H   0  0  0  0  0  0  0  0  0  0  0  0
  8  9  1  0  0  0
  9  7  1  0  0  0
  7  1  1  0  0  0
  1  2  2  0  0  0
  2  3  1  0  0  0
  3  4  2  0  0  0
  4  5  1  0  0  0
  5  6  2  0  0  0
  6 10  1  0  0  0
 10 11  1  0  0  0
 11 12  1  0  0  0
 11 13  1  0  0  0
 13 14  2  0  0  0
 14 15  1  0  0  0
 15 16  1  0  0  0
 16 17  1  0  0  0
  6  1  1  0  0  0
 17 13  1  0  0  0
 17 18  1  0  0  0
M  END
> <minimizedAffinity>
-5.12233

> <CNNscore>
0.6576111317

> <CNNaffinity>
4.0608644485

> <CNN_VS>
2.6704697609

> <CNNaffinity_variance>
0.4328739047

$$$$
[H]c1c([H])c([H])c(C([H])([H])C([H])([H])C([H])([H])[H])c(OC([H])(C2=NC([H])([H])C([H])([H])N2[H])C([H])([H])[H])c1[H]


 18 19  0  0  0  0  0  0  0  0999 V2000
   35.8562  -15.5125   36.8869 C   0  0  0  0  0  0  0  0  0  0  0  0
   36.2705  -16.6289   36.1952 C   0  0  0  0  0  0  0  0  0  0  0  0
   35.4304  -17.3237   35.3509 C   0  0  0  0  0  0  0  0  0  0  0  0
   34.1263  -16.9119   35.1717 C   0  0  0  0  0  0  0  0  0  0  0  0
   33.6924  -15.7968   35.8547 C   0  0  0  0  0  0  0  0  0  0  0  0
   34.5304  -15.1024   36.6981 C   0  0  0  0  0  0  0  0  0  0  0  0
   36.7161  -14.7505   37.7968 C   0  0  0  0  0  0  0  0  0  0  0  0
   38.6723  -13.2081   37.8520 C   0  0  0  0  0  0  0  0  0  0  0  0
   37.3638  -13.5543   37.1305 C   0  0  0  0  0  0  0  0  0  0  0  0
   34.1372  -13.9976   37.3877 O   0  0  0  0  0  0  0  0  0  0  0  0
   33.4816  -12.8725   36.9259 C   0  0  0  0  0  0  0  0  0  0  0  0
   34.2628  -11.6035   37.0617 C   0  0  0  0  0  0  0  0  0  0  0  0
   32.1385  -12.6928   37.5968 C   0  0  0  0  0  0  0  0  0  0  0  0
   31.2230  -11.9397   37.1111 N   0  0  0  0  0  0  0  0  0  0  0  0
   30.0581  -11.9502   37.9441 C   0  0  0  0  0  0  0  0  0  0  0  0
   30.4860  -12.6578   39.2101 C   0  0  0  0  0  0  0  0  0  0  0  0
   31.7100  -13.2967   38.8000 N   0  0  0  0  0  0  0  0  0  0  0  0
   32.2074  -14.0859   39.3109 H   0  0  0  0  0  0  0  0  0  0  0  0
  8  9  1  0  0  0
  9  7  1  0  0  0
  7  1  1  0  0  0
  1  2  2  0  0  0
  2  3  1  0  0  0
  3  4  2  0  0  0
  4  5  1  0  0  0
  5  6  2  0  0  0
  6 10  1  0  0  0
 10 11  1  0  0  0
 11 12  1  0  0  0
 11 13  1  0  0  0
 13 14  2  0  0  0
 14 15  1  0  0  0
 15 16  1  0  0  0
 16 17  1  0  0  0
  6  1  1  0  0  0
 17 13  1  0  0  0
 17 18  1  0  0  0
M  END
> <minimizedAffinity>
-6.28274

> <CNNscore>
0.6379190683

> <CNNaffinity>
4.6711196899

> <CNN_VS>
2.9797964096

> <CNNaffinity_variance>
0.2623406053

$$$$
[H]c1c([H])c([H])c(C([H])([H])C([H])([H])C([H])([H])[H])c(OC([H])(C2=NC([H])([H])C([H])([H])N2[H])C([H])([H])[H])c1[H]


 18 19  0  0  0  0  0  0  0  0999 V2000
   34.8716  -16.9195   35.4334 C   0  0  0  0  0  0  0  0  0  0  0  0
   36.2260  -16.7497   35.2511 C   0  0  0  0  0  0  0  0  0  0  0  0
   37.0024  -17.6845   34.5993 C   0  0  0  0  0  0  0  0  0  0  0  0
   36.4331  -18.8380   34.1015 C   0  0  0  0  0  0  0  0  0  0  0  0
   35.0793  -19.0265   34.2735 C   0  0  0  0  0  0  0  0  0  0  0  0
   34.3031  -18.0939   34.9244 C   0  0  0  0  0  0  0  0  0  0  0  0
   34.0138  -15.9530   36.1248 C   0  0  0  0  0  0  0  0  0  0  0  0
   34.9915  -14.1034   37.4783 C   0  0  0  0  0  0  0  0  0  0  0  0
   34.5586  -14.5406   36.0733 C   0  0  0  0  0  0  0  0  0  0  0  0
   32.9643  -18.2459   35.1118 O   0  0  0  0  0  0  0  0  0  0  0  0
   32.1687  -19.3439   34.8463 C   0  0  0  0  0  0  0  0  0  0  0  0
   30.6989  -19.0704   34.9075 C   0  0  0  0  0  0  0  0  0  0  0  0
   32.4883  -20.5015   35.7651 C   0  0  0  0  0  0  0  0  0  0  0  0
   32.3287  -20.4358   37.0345 N   0  0  0  0  0  0  0  0  0  0  0  0
   32.7073  -21.6666   37.6611 C   0  0  0  0  0  0  0  0  0  0  0  0
   33.3927  -22.4660   36.5759 C   0  0  0  0  0  0  0  0  0  0  0  0
   32.9862  -21.7674   35.3838 N   0  0  0  0  0  0  0  0  0  0  0  0
   33.0482  -22.1369   34.3883 H   0  0  0  0  0  0  0  0  0  0  0  0
  8  9  1  0  0  0
  9  7  1  0  0  0
  7  1  1  0  0  0
  1  2  2  0  0  0
  2  3  1  0  0  0
  3  4  2  0  0  0
  4  5  1  0  0  0
  5  6  2  0  0  0
  6 10  1  0  0  0
 10 11  1  0  0  0
 11 12  1  0  0  0
 11 13  1  0  0  0
 13 14  2  0  0  0
 14 15  1  0  0  0
 15 16  1  0  0  0
 16 17  1  0  0  0
  6  1  1  0  0  0
 17 13  1  0  0  0
 17 18  1  0  0  0
M  END
> <minimizedAffinity>
-5.02870

> <CNNscore>
0.6361165047

> <CNNaffinity>
3.9990966320

> <CNN_VS>
2.5438914299

> <CNNaffinity_variance>
0.5561293364

$$$$
[H]c1c([H])c([H])c(C([H])([H])C([H])([H])C([H])([H])[H])c(OC([H])(C2=NC([H])([H])C([H])([H])N2[H])C([H])([H])[H])c1[H]


 18 19  0  0  0  0  0  0  0  0999 V2000
   34.4450  -16.6265   35.6682 C   0  0  0  0  0  0  0  0  0  0  0  0
   33.8531  -15.4183   35.9619 C   0  0  0  0  0  0  0  0  0  0  0  0
   34.4629  -14.4775   36.7648 C   0  0  0  0  0  0  0  0  0  0  0  0
   35.7071  -14.7248   37.3063 C   0  0  0  0  0  0  0  0  0  0  0  0
   36.3162  -15.9279   37.0242 C   0  0  0  0  0  0  0  0  0  0  0  0
   35.7081  -16.8681   36.2228 C   0  0  0  0  0  0  0  0  0  0  0  0
   33.8279  -17.6538   34.8245 C   0  0  0  0  0  0  0  0  0  0  0  0
   31.8168  -19.0853   34.4849 C   0  0  0  0  0  0  0  0  0  0  0  0
   32.7086  -18.3959   35.5251 C   0  0  0  0  0  0  0  0  0  0  0  0
   36.2794  -18.0656   35.9223 O   0  0  0  0  0  0  0  0  0  0  0  0
   37.4766  -18.3210   35.2816 C   0  0  0  0  0  0  0  0  0  0  0  0
   37.4677  -18.0236   33.8152 C   0  0  0  0  0  0  0  0  0  0  0  0
   37.9273  -19.7496   35.4870 C   0  0  0  0  0  0  0  0  0  0  0  0
   38.1364  -20.2437   36.6504 N   0  0  0  0  0  0  0  0  0  0  0  0
   38.5547  -21.6102   36.5570 C   0  0  0  0  0  0  0  0  0  0  0  0
   38.8288  -21.8383   35.0875 C   0  0  0  0  0  0  0  0  0  0  0  0
   38.1743  -20.7085   34.4794 N   0  0  0  0  0  0  0  0  0  0  0  0
   37.9194  -20.6098   33.4515 H   0  0  0  0  0  0  0  0  0  0  0  0
  8  9  1  0  0  0
  9  7  1  0  0  0
  7  1  1  0  0  0
  1  2  2  0  0  0
  2  3  1  0  0  0
  3  4  2  0  0  0
  4  5  1  0  0  0
  5  6  2  0  0  0
  6 10  1  0  0  0
 10 11  1  0  0  0
 11 12  1  0  0  0
 11 13  1  0  0  0
 13 14  2  0  0  0
 14 15  1  0  0  0
 15 16  1  0  0  0
 16 17  1  0  0  0
  6  1  1  0  0  0
 17 13  1  0  0  0
 17 18  1  0  0  0
M  END
> <minimizedAffinity>
-4.88989

> <CNNscore>
0.6352590322

> <CNNaffinity>
3.9899718761

> <CNN_VS>
2.5346655846

> <CNNaffinity_variance>
0.4558988512

$$$$
[H]C1=C2C([H])([H])C([H])([H])C([H])([H])C([H])([H])[C@]2([H])/C(=C(\[H])C([H])([H])C2([H])C([H])([H])C([H])([H])C(C([H])([H])[H])(C([H])([H])[H])[N+]2(C([H])([H])[H])C([H])([H])[H])[C@]2([H])[C@@]1([H])C(=O)O[C@@]2([H])C([H])([H])[H]


 26 29  0  0  0  0  0  0  0  0999 V2000
   36.6297  -22.7010   38.0757 C   0  0  0  0  0  0  0  0  0  0  0  0
   37.1141  -21.2697   37.7090 C   0  0  0  0  0  0  0  0  0  0  0  0
   36.8833  -20.5317   38.8824 O   0  0  0  0  0  0  0  0  0  0  0  0
   35.5026  -20.3460   38.9043 C   0  0  0  0  0  0  0  0  0  0  0  0
   34.8766  -19.8302   39.8573 O   0  0  0  0  0  0  0  0  0  0  0  0
   34.9352  -20.8556   37.6334 C   0  0  0  0  0  0  0  0  0  0  0  0
   33.7502  -20.2027   37.1492 C   0  0  0  0  0  0  0  0  0  0  0  0
   33.6851  -19.3695   36.1673 C   0  0  0  0  0  0  0  0  0  0  0  0
   32.4163  -18.7402   35.7293 C   0  0  0  0  0  0  0  0  0  0  0  0
   32.5148  -18.5375   34.2232 C   0  0  0  0  0  0  0  0  0  0  0  0
   33.3715  -19.5744   33.5705 C   0  0  0  0  0  0  0  0  0  0  0  0
   34.7748  -19.6633   34.0618 C   0  0  0  0  0  0  0  0  0  0  0  0
   34.8845  -19.0064   35.4358 C   0  0  0  0  0  0  0  0  0  0  0  0
   36.1856  -19.4769   36.0827 C   0  0  0  0  0  0  0  0  0  0  0  0
   37.1508  -18.6338   35.8815 C   0  0  0  0  0  0  0  0  0  0  0  0
   36.1941  -20.7256   36.7334 C   0  0  0  0  0  0  0  0  0  0  0  0
   38.5062  -18.7568   36.3505 C   0  0  0  0  0  0  0  0  0  0  0  0
   39.2583  -19.6074   35.2733 C   0  0  0  0  0  0  0  0  0  0  0  0
   38.8950  -19.1146   33.9001 C   0  0  0  0  0  0  0  0  0  0  0  0
   40.1504  -18.3232   33.5310 C   0  0  0  0  0  0  0  0  0  0  0  0
   41.2139  -19.2437   34.1102 C   0  0  0  0  0  0  0  0  0  0  0  0
   41.2758  -20.4626   33.2174 C   0  0  0  0  0  0  0  0  0  0  0  0
   42.5668  -18.6110   34.1574 C   0  0  0  0  0  0  0  0  0  0  0  0
   40.6673  -19.5387   35.4175 N   0  0  0  0  0  0  0  0  0  0  0  0
   41.1387  -20.8953   35.7463 C   0  0  0  0  0  0  0  0  0  0  0  0
   41.1668  -18.6763   36.4424 C   0  0  0  0  0  0  0  0  0  0  0  0
  1  2  1  0  0  0
  2  3  1  0  0  0
  3  4  1  0  0  0
  4  5  2  0  0  0
  4  6  1  0  0  0
  6  7  1  0  0  0
  7  8  2  0  0  0
  8  9  1  0  0  0
  9 10  1  0  0  0
 10 11  1  0  0  0
 11 12  1  0  0  0
 12 13  1  0  0  0
 13 14  1  0  0  0
 14 15  2  0  0  0
 15 17  1  0  0  0
 17 18  1  0  0  0
 18 19  1  0  0  0
 19 20  1  0  0  0
 20 21  1  0  0  0
 21 22  1  0  0  0
 21 23  1  0  0  0
 21 24  1  0  0  0
 24 25  1  0  0  0
 24 26  1  0  0  0
 14 16  1  0  0  0
 16  2  1  0  0  0
 16  6  1  0  0  0
 13  8  1  0  0  0
 24 18  1  0  0  0
M  CHG 1  24   1
M  END
> <minimizedAffinity>
-5.87798

> <CNNscore>
0.5586228967

> <CNNaffinity>
5.1847820282

> <CNN_VS>
2.8963379860

> <CNNaffinity_variance>
0.1936696470

$$$$
[H]C1=C2C([H])([H])C([H])([H])C([H])([H])C([H])([H])[C@]2([H])/C(=C(\[H])C([H])([H])C2([H])C([H])([H])C([H])([H])C(C([H])([H])[H])(C([H])([H])[H])[N+]2(C([H])([H])[H])C([H])([H])[H])[C@]2([H])[C@@]1([H])C(=O)O[C@@]2([H])C([H])([H])[H]


 26 29  0  0  0  0  0  0  0  0999 V2000
   33.7068  -24.3426   36.5818 C   0  0  0  0  0  0  0  0  0  0  0  0
   34.2190  -23.2716   37.5859 C   0  0  0  0  0  0  0  0  0  0  0  0
   33.1626  -23.1470   38.5041 O   0  0  0  0  0  0  0  0  0  0  0  0
   32.1934  -22.4210   37.8149 C   0  0  0  0  0  0  0  0  0  0  0  0
   31.0412  -22.1964   38.2485 O   0  0  0  0  0  0  0  0  0  0  0  0
   32.7628  -21.9809   36.5191 C   0  0  0  0  0  0  0  0  0  0  0  0
   32.2680  -20.7417   35.9856 C   0  0  0  0  0  0  0  0  0  0  0  0
   32.8892  -19.6119   35.9784 C   0  0  0  0  0  0  0  0  0  0  0  0
   32.3051  -18.3765   35.4036 C   0  0  0  0  0  0  0  0  0  0  0  0
   33.4576  -17.5612   34.8325 C   0  0  0  0  0  0  0  0  0  0  0  0
   34.5796  -18.4280   34.3582 C   0  0  0  0  0  0  0  0  0  0  0  0
   35.1844  -19.3274   35.3799 C   0  0  0  0  0  0  0  0  0  0  0  0
   34.2190  -19.5050   36.5494 C   0  0  0  0  0  0  0  0  0  0  0  0
   34.6635  -20.7285   37.3483 C   0  0  0  0  0  0  0  0  0  0  0  0
   35.4184  -20.3962   38.3496 C   0  0  0  0  0  0  0  0  0  0  0  0
   34.2697  -22.0017   36.8937 C   0  0  0  0  0  0  0  0  0  0  0  0
   36.0087  -21.2911   39.3102 C   0  0  0  0  0  0  0  0  0  0  0  0
   37.2955  -21.8651   38.6287 C   0  0  0  0  0  0  0  0  0  0  0  0
   38.3394  -20.7869   38.5373 C   0  0  0  0  0  0  0  0  0  0  0  0
   39.2798  -21.1922   39.6731 C   0  0  0  0  0  0  0  0  0  0  0  0
   39.2582  -22.7031   39.4977 C   0  0  0  0  0  0  0  0  0  0  0  0
   40.0457  -23.0128   38.2444 C   0  0  0  0  0  0  0  0  0  0  0  0
   39.8758  -23.4303   40.6476 C   0  0  0  0  0  0  0  0  0  0  0  0
   37.8425  -22.9611   39.3432 N   0  0  0  0  0  0  0  0  0  0  0  0
   37.7489  -24.1425   38.4679 C   0  0  0  0  0  0  0  0  0  0  0  0
   37.1990  -23.3134   40.5702 C   0  0  0  0  0  0  0  0  0  0  0  0
  1  2  1  0  0  0
  2  3  1  0  0  0
  3  4  1  0  0  0
  4  5  2  0  0  0
  4  6  1  0  0  0
  6  7  1  0  0  0
  7  8  2  0  0  0
  8  9  1  0  0  0
  9 10  1  0  0  0
 10 11  1  0  0  0
 11 12  1  0  0  0
 12 13  1  0  0  0
 13 14  1  0  0  0
 14 15  2  0  0  0
 15 17  1  0  0  0
 17 18  1  0  0  0
 18 19  1  0  0  0
 19 20  1  0  0  0
 20 21  1  0  0  0
 21 22  1  0  0  0
 21 23  1  0  0  0
 21 24  1  0  0  0
 24 25  1  0  0  0
 24 26  1  0  0  0
 14 16  1  0  0  0
 16  2  1  0  0  0
 16  6  1  0  0  0
 13  8  1  0  0  0
 24 18  1  0  0  0
M  CHG 1  24   1
M  END
> <minimizedAffinity>
-4.34276

> <CNNscore>
0.4796332121

> <CNNaffinity>
4.6151757240

> <CNN_VS>
2.2135915756

> <CNNaffinity_variance>
0.1340770572

$$$$
[H]C1=C2C([H])([H])C([H])([H])C([H])([H])C([H])([H])[C@]2([H])/C(=C(\[H])C([H])([H])C2([H])C([H])([H])C([H])([H])C(C([H])([H])[H])(C([H])([H])[H])[N+]2(C([H])([H])[H])C([H])([H])[H])[C@]2([H])[C@@]1([H])C(=O)O[C@@]2([H])C([H])([H])[H]


 26 29  0  0  0  0  0  0  0  0999 V2000
   35.5874  -20.1440   38.6359 C   0  0  0  0  0  0  0  0  0  0  0  0
   35.0662  -19.9489   37.1840 C   0  0  0  0  0  0  0  0  0  0  0  0
   36.1666  -20.3072   36.3868 O   0  0  0  0  0  0  0  0  0  0  0  0
   37.0392  -19.2272   36.5018 C   0  0  0  0  0  0  0  0  0  0  0  0
   38.1981  -19.2050   36.0298 O   0  0  0  0  0  0  0  0  0  0  0  0
   36.3619  -18.1489   37.2603 C   0  0  0  0  0  0  0  0  0  0  0  0
   36.7368  -16.7999   36.9365 C   0  0  0  0  0  0  0  0  0  0  0  0
   36.0405  -15.9579   36.2520 C   0  0  0  0  0  0  0  0  0  0  0  0
   36.5020  -14.5788   35.9639 C   0  0  0  0  0  0  0  0  0  0  0  0
   35.2632  -13.6944   35.9143 C   0  0  0  0  0  0  0  0  0  0  0  0
   34.1760  -14.1978   36.8084 C   0  0  0  0  0  0  0  0  0  0  0  0
   33.6986  -15.5824   36.5373 C   0  0  0  0  0  0  0  0  0  0  0  0
   34.7445  -16.3401   35.7229 C   0  0  0  0  0  0  0  0  0  0  0  0
   34.4350  -17.8322   35.8266 C   0  0  0  0  0  0  0  0  0  0  0  0
   33.7227  -18.2428   34.8232 C   0  0  0  0  0  0  0  0  0  0  0  0
   34.8861  -18.5300   36.9635 C   0  0  0  0  0  0  0  0  0  0  0  0
   33.2556  -19.5856   34.5980 C   0  0  0  0  0  0  0  0  0  0  0  0
   32.0359  -19.7833   35.5588 C   0  0  0  0  0  0  0  0  0  0  0  0
   30.8363  -19.0681   35.0020 C   0  0  0  0  0  0  0  0  0  0  0  0
   30.0327  -20.2399   34.4367 C   0  0  0  0  0  0  0  0  0  0  0  0
   30.2748  -21.2689   35.5305 C   0  0  0  0  0  0  0  0  0  0  0  0
   29.4762  -20.8271   36.7362 C   0  0  0  0  0  0  0  0  0  0  0  0
   29.8395  -22.6442   35.1409 C   0  0  0  0  0  0  0  0  0  0  0  0
   31.7027  -21.1503   35.7350 N   0  0  0  0  0  0  0  0  0  0  0  0
   31.9272  -21.4743   37.1546 C   0  0  0  0  0  0  0  0  0  0  0  0
   32.4588  -22.0985   34.9781 C   0  0  0  0  0  0  0  0  0  0  0  0
  1  2  1  0  0  0
  2  3  1  0  0  0
  3  4  1  0  0  0
  4  5  2  0  0  0
  4  6  1  0  0  0
  6  7  1  0  0  0
  7  8  2  0  0  0
  8  9  1  0  0  0
  9 10  1  0  0  0
 10 11  1  0  0  0
 11 12  1  0  0  0
 12 13  1  0  0  0
 13 14  1  0  0  0
 14 15  2  0  0  0
 15 17  1  0  0  0
 17 18  1  0  0  0
 18 19  1  0  0  0
 19 20  1  0  0  0
 20 21  1  0  0  0
 21 22  1  0  0  0
 21 23  1  0  0  0
 21 24  1  0  0  0
 24 25  1  0  0  0
 24 26  1  0  0  0
 14 16  1  0  0  0
 16  2  1  0  0  0
 16  6  1  0  0  0
 13  8  1  0  0  0
 24 18  1  0  0  0
M  CHG 1  24   1
M  END
> <minimizedAffinity>
-6.49118

> <CNNscore>
0.4540155232

> <CNNaffinity>
5.1818070412

> <CNN_VS>
2.3526208401

> <CNNaffinity_variance>
0.5038922429

$$$$
[H]C1=C2C([H])([H])C([H])([H])C([H])([H])C([H])([H])[C@]2([H])/C(=C(\[H])C([H])([H])C2([H])C([H])([H])C([H])([H])C(C([H])([H])[H])(C([H])([H])[H])[N+]2(C([H])([H])[H])C([H])([H])[H])[C@]2([H])[C@@]1([H])C(=O)O[C@@]2([H])C([H])([H])[H]


 26 29  0  0  0  0  0  0  0  0999 V2000
   38.7817  -23.5632   34.6546 C   0  0  0  0  0  0  0  0  0  0  0  0
   39.2801  -22.1909   35.1896 C   0  0  0  0  0  0  0  0  0  0  0  0
   40.4065  -22.5257   35.9601 O   0  0  0  0  0  0  0  0  0  0  0  0
   39.8744  -23.0843   37.1203 C   0  0  0  0  0  0  0  0  0  0  0  0
   40.5578  -23.6211   38.0208 O   0  0  0  0  0  0  0  0  0  0  0  0
   38.4007  -22.9289   37.0887 C   0  0  0  0  0  0  0  0  0  0  0  0
   37.7400  -22.7915   38.3575 C   0  0  0  0  0  0  0  0  0  0  0  0
   37.2604  -21.7025   38.8541 C   0  0  0  0  0  0  0  0  0  0  0  0
   36.5892  -21.6481   40.1748 C   0  0  0  0  0  0  0  0  0  0  0  0
   35.5134  -20.5739   40.0853 C   0  0  0  0  0  0  0  0  0  0  0  0
   34.9656  -20.4399   38.7007 C   0  0  0  0  0  0  0  0  0  0  0  0
   35.9561  -20.1136   37.6372 C   0  0  0  0  0  0  0  0  0  0  0  0
   37.3640  -20.4558   38.1187 C   0  0  0  0  0  0  0  0  0  0  0  0
   38.2799  -20.5169   36.8979 C   0  0  0  0  0  0  0  0  0  0  0  0
   38.8924  -19.3899   36.7040 C   0  0  0  0  0  0  0  0  0  0  0  0
   38.3036  -21.7033   36.1400 C   0  0  0  0  0  0  0  0  0  0  0  0
   39.8298  -19.0954   35.6520 C   0  0  0  0  0  0  0  0  0  0  0  0
   41.1103  -18.5404   36.3604 C   0  0  0  0  0  0  0  0  0  0  0  0
   41.2578  -19.1859   37.7102 C   0  0  0  0  0  0  0  0  0  0  0  0
   42.3717  -20.1960   37.4320 C   0  0  0  0  0  0  0  0  0  0  0  0
   43.2588  -19.3570   36.5248 C   0  0  0  0  0  0  0  0  0  0  0  0
   43.9214  -18.3147   37.3973 C   0  0  0  0  0  0  0  0  0  0  0  0
   44.3184  -20.1606   35.8437 C   0  0  0  0  0  0  0  0  0  0  0  0
   42.2905  -18.7856   35.6134 N   0  0  0  0  0  0  0  0  0  0  0  0
   42.8397  -17.4754   35.2232 C   0  0  0  0  0  0  0  0  0  0  0  0
   42.1423  -19.5387   34.4073 C   0  0  0  0  0  0  0  0  0  0  0  0
  1  2  1  0  0  0
  2  3  1  0  0  0
  3  4  1  0  0  0
  4  5  2  0  0  0
  4  6  1  0  0  0
  6  7  1  0  0  0
  7  8  2  0  0  0
  8  9  1  0  0  0
  9 10  1  0  0  0
 10 11  1  0  0  0
 11 12  1  0  0  0
 12 13  1  0  0  0
 13 14  1  0  0  0
 14 15  2  0  0  0
 15 17  1  0  0  0
 17 18  1  0  0  0
 18 19  1  0  0  0
 19 20  1  0  0  0
 20 21  1  0  0  0
 21 22  1  0  0  0
 21 23  1  0  0  0
 21 24  1  0  0  0
 24 25  1  0  0  0
 24 26  1  0  0  0
 14 16  1  0  0  0
 16  2  1  0  0  0
 16  6  1  0  0  0
 13  8  1  0  0  0
 24 18  1  0  0  0
M  CHG 1  24   1
M  END
> <minimizedAffinity>
-4.54751

> <CNNscore>
0.4219602942

> <CNNaffinity>
4.6922044754

> <CNN_VS>
1.9799239635

> <CNNaffinity_variance>
0.1645897180

$$$$
[H]C1=C2C([H])([H])C([H])([H])C([H])([H])C([H])([H])[C@]2([H])/C(=C(\[H])C([H])([H])C2([H])C([H])([H])C([H])([H])C(C([H])([H])[H])(C([H])([H])[H])[N+]2(C([H])([H])[H])C([H])([H])[H])[C@]2([H])[C@@]1([H])C(=O)O[C@@]2([H])C([H])([H])[H]


 26 29  0  0  0  0  0  0  0  0999 V2000
   34.4636  -19.0771   33.3404 C   0  0  0  0  0  0  0  0  0  0  0  0
   35.1019  -19.1300   34.7573 C   0  0  0  0  0  0  0  0  0  0  0  0
   34.0648  -19.6202   35.5690 O   0  0  0  0  0  0  0  0  0  0  0  0
   33.1989  -18.5377   35.7095 C   0  0  0  0  0  0  0  0  0  0  0  0
   32.0820  -18.5977   36.2708 O   0  0  0  0  0  0  0  0  0  0  0  0
   33.8262  -17.3453   35.0917 C   0  0  0  0  0  0  0  0  0  0  0  0
   33.4949  -16.0714   35.6683 C   0  0  0  0  0  0  0  0  0  0  0  0
   34.2541  -15.3564   36.4266 C   0  0  0  0  0  0  0  0  0  0  0  0
   33.8339  -14.0469   36.9802 C   0  0  0  0  0  0  0  0  0  0  0  0
   35.0833  -13.1816   37.0779 C   0  0  0  0  0  0  0  0  0  0  0  0
   36.0891  -13.5244   36.0263 C   0  0  0  0  0  0  0  0  0  0  0  0
   36.5699  -14.9341   36.0199 C   0  0  0  0  0  0  0  0  0  0  0  0
   35.5836  -15.8206   36.7765 C   0  0  0  0  0  0  0  0  0  0  0  0
   35.8656  -17.2731   36.3973 C   0  0  0  0  0  0  0  0  0  0  0  0
   36.6511  -17.8466   37.2557 C   0  0  0  0  0  0  0  0  0  0  0  0
   35.3164  -17.7688   35.1992 C   0  0  0  0  0  0  0  0  0  0  0  0
   37.1184  -19.2074   37.2120 C   0  0  0  0  0  0  0  0  0  0  0  0
   38.3692  -19.2023   36.2711 C   0  0  0  0  0  0  0  0  0  0  0  0
   39.5490  -18.6295   37.0064 C   0  0  0  0  0  0  0  0  0  0  0  0
   40.3352  -19.8996   37.3339 C   0  0  0  0  0  0  0  0  0  0  0  0
   40.1304  -20.6698   36.0383 C   0  0  0  0  0  0  0  0  0  0  0  0
   40.9676  -19.9853   34.9813 C   0  0  0  0  0  0  0  0  0  0  0  0
   40.5545  -22.0991   36.1388 C   0  0  0  0  0  0  0  0  0  0  0  0
   38.7099  -20.5020   35.8177 N   0  0  0  0  0  0  0  0  0  0  0  0
   38.5325  -20.5141   34.3551 C   0  0  0  0  0  0  0  0  0  0  0  0
   37.9305  -21.5857   36.3297 C   0  0  0  0  0  0  0  0  0  0  0  0
  1  2  1  0  0  0
  2  3  1  0  0  0
  3  4  1  0  0  0
  4  5  2  0  0  0
  4  6  1  0  0  0
  6  7  1  0  0  0
  7  8  2  0  0  0
  8  9  1  0  0  0
  9 10  1  0  0  0
 10 11  1  0  0  0
 11 12  1  0  0  0
 12 13  1  0  0  0
 13 14  1  0  0  0
 14 15  2  0  0  0
 15 17  1  0  0  0
 17 18  1  0  0  0
 18 19  1  0  0  0
 19 20  1  0  0  0
 20 21  1  0  0  0
 21 22  1  0  0  0
 21 23  1  0  0  0
 21 24  1  0  0  0
 24 25  1  0  0  0
 24 26  1  0  0  0
 14 16  1  0  0  0
 16  2  1  0  0  0
 16  6  1  0  0  0
 13  8  1  0  0  0
 24 18  1  0  0  0
M  CHG 1  24   1
M  END
> <minimizedAffinity>
-6.80062

> <CNNscore>
0.4214650989

> <CNNaffinity>
5.3713049889

> <CNN_VS>
2.2638175488

> <CNNaffinity_variance>
0.1220649034

$$$$
[H]C1=C2C([H])([H])C([H])([H])C([H])([H])C([H])([H])[C@]2([H])/C(=C(\[H])C([H])([H])C2([H])C([H])([H])C([H])([H])C(C([H])([H])[H])(C([H])([H])[H])[N+]2(C([H])([H])[H])C([H])([H])[H])[C@]2([H])[C@@]1([H])C(=O)O[C@@]2([H])C([H])([H])[H]


 26 29  0  0  0  0  0  0  0  0999 V2000
   34.0590  -19.6054   33.3438 C   0  0  0  0  0  0  0  0  0  0  0  0
   34.5552  -19.6608   34.8164 C   0  0  0  0  0  0  0  0  0  0  0  0
   33.3869  -19.9308   35.5491 O   0  0  0  0  0  0  0  0  0  0  0  0
   32.6949  -18.7216   35.5486 C   0  0  0  0  0  0  0  0  0  0  0  0
   31.5381  -18.5721   36.0022 O   0  0  0  0  0  0  0  0  0  0  0  0
   33.5547  -17.6833   34.9325 C   0  0  0  0  0  0  0  0  0  0  0  0
   33.3811  -16.3380   35.4070 C   0  0  0  0  0  0  0  0  0  0  0  0
   34.1752  -15.6988   36.1963 C   0  0  0  0  0  0  0  0  0  0  0  0
   33.9218  -14.3063   36.6374 C   0  0  0  0  0  0  0  0  0  0  0  0
   35.2794  -13.6381   36.8095 C   0  0  0  0  0  0  0  0  0  0  0  0
   36.3056  -14.2004   35.8791 C   0  0  0  0  0  0  0  0  0  0  0  0
   36.5552  -15.6644   35.9928 C   0  0  0  0  0  0  0  0  0  0  0  0
   35.3788  -16.3368   36.6964 C   0  0  0  0  0  0  0  0  0  0  0  0
   35.4585  -17.8373   36.4227 C   0  0  0  0  0  0  0  0  0  0  0  0
   36.0654  -18.4658   37.3816 C   0  0  0  0  0  0  0  0  0  0  0  0
   34.9438  -18.3220   35.2049 C   0  0  0  0  0  0  0  0  0  0  0  0
   36.3129  -19.8820   37.4545 C   0  0  0  0  0  0  0  0  0  0  0  0
   37.7968  -20.0352   37.9279 C   0  0  0  0  0  0  0  0  0  0  0  0
   37.8834  -21.1175   38.9680 C   0  0  0  0  0  0  0  0  0  0  0  0
   38.4769  -22.2644   38.1490 C   0  0  0  0  0  0  0  0  0  0  0  0
   39.4735  -21.4869   37.3027 C   0  0  0  0  0  0  0  0  0  0  0  0
   40.6018  -21.0720   38.2199 C   0  0  0  0  0  0  0  0  0  0  0  0
   40.0371  -22.2953   36.1795 C   0  0  0  0  0  0  0  0  0  0  0  0
   38.6728  -20.3644   36.8625 N   0  0  0  0  0  0  0  0  0  0  0  0
   39.6151  -19.2421   36.7102 C   0  0  0  0  0  0  0  0  0  0  0  0
   38.0756  -20.5695   35.5799 C   0  0  0  0  0  0  0  0  0  0  0  0
  1  2  1  0  0  0
  2  3  1  0  0  0
  3  4  1  0  0  0
  4  5  2  0  0  0
  4  6  1  0  0  0
  6  7  1  0  0  0
  7  8  2  0  0  0
  8  9  1  0  0  0
  9 10  1  0  0  0
 10 11  1  0  0  0
 11 12  1  0  0  0
 12 13  1  0  0  0
 13 14  1  0  0  0
 14 15  2  0  0  0
 15 17  1  0  0  0
 17 18  1  0  0  0
 18 19  1  0  0  0
 19 20  1  0  0  0
 20 21  1  0  0  0
 21 22  1  0  0  0
 21 23  1  0  0  0
 21 24  1  0  0  0
 24 25  1  0  0  0
 24 26  1  0  0  0
 14 16  1  0  0  0
 16  2  1  0  0  0
 16  6  1  0  0  0
 13  8  1  0  0  0
 24 18  1  0  0  0
M  CHG 1  24   1
M  END
> <minimizedAffinity>
-6.49096

> <CNNscore>
0.3977098465

> <CNNaffinity>
5.3477606773

> <CNN_VS>
2.1268570423

> <CNNaffinity_variance>
0.0244105160

$$$$
[H]C1=C2C([H])([H])C([H])([H])C([H])([H])C([H])([H])[C@]2([H])/C(=C(\[H])C([H])([H])C2([H])C([H])([H])C([H])([H])C(C([H])([H])[H])(C([H])([H])[H])[N+]2(C([H])([H])[H])C([H])([H])[H])[C@]2([H])[C@@]1([H])C(=O)O[C@@]2([H])C([H])([H])[H]


 26 29  0  0  0  0  0  0  0  0999 V2000
   34.1558  -24.5865   37.0687 C   0  0  0  0  0  0  0  0  0  0  0  0
   34.4970  -23.1437   37.5373 C   0  0  0  0  0  0  0  0  0  0  0  0
   33.8914  -23.0550   38.8023 O   0  0  0  0  0  0  0  0  0  0  0  0
   32.5323  -22.9278   38.5233 C   0  0  0  0  0  0  0  0  0  0  0  0
   31.6314  -22.9375   39.3919 O   0  0  0  0  0  0  0  0  0  0  0  0
   32.3603  -22.7842   37.0582 C   0  0  0  0  0  0  0  0  0  0  0  0
   31.2392  -22.0022   36.6146 C   0  0  0  0  0  0  0  0  0  0  0  0
   31.2846  -20.8044   36.1395 C   0  0  0  0  0  0  0  0  0  0  0  0
   30.0758  -20.0666   35.7013 C   0  0  0  0  0  0  0  0  0  0  0  0
   30.4941  -19.1721   34.5420 C   0  0  0  0  0  0  0  0  0  0  0  0
   31.6228  -19.7591   33.7569 C   0  0  0  0  0  0  0  0  0  0  0  0
   32.8690  -20.0440   34.5214 C   0  0  0  0  0  0  0  0  0  0  0  0
   32.5555  -20.1153   36.0140 C   0  0  0  0  0  0  0  0  0  0  0  0
   33.7231  -20.8118   36.7100 C   0  0  0  0  0  0  0  0  0  0  0  0
   34.5739  -19.9562   37.1863 C   0  0  0  0  0  0  0  0  0  0  0  0
   33.7620  -22.2194   36.7009 C   0  0  0  0  0  0  0  0  0  0  0  0
   35.7842  -20.2615   37.9033 C   0  0  0  0  0  0  0  0  0  0  0  0
   36.8864  -20.4781   36.8133 C   0  0  0  0  0  0  0  0  0  0  0  0
   37.0915  -19.2020   36.0452 C   0  0  0  0  0  0  0  0  0  0  0  0
   38.4006  -18.6996   36.6556 C   0  0  0  0  0  0  0  0  0  0  0  0
   39.1445  -20.0196   36.7903 C   0  0  0  0  0  0  0  0  0  0  0  0
   39.5348  -20.4503   35.3943 C   0  0  0  0  0  0  0  0  0  0  0  0
   40.3795  -19.9080   37.6239 C   0  0  0  0  0  0  0  0  0  0  0  0
   38.1290  -20.8714   37.3719 N   0  0  0  0  0  0  0  0  0  0  0  0
   38.4198  -22.2282   36.8766 C   0  0  0  0  0  0  0  0  0  0  0  0
   38.2003  -20.9364   38.7982 C   0  0  0  0  0  0  0  0  0  0  0  0
  1  2  1  0  0  0
  2  3  1  0  0  0
  3  4  1  0  0  0
  4  5  2  0  0  0
  4  6  1  0  0  0
  6  7  1  0  0  0
  7  8  2  0  0  0
  8  9  1  0  0  0
  9 10  1  0  0  0
 10 11  1  0  0  0
 11 12  1  0  0  0
 12 13  1  0  0  0
 13 14  1  0  0  0
 14 15  2  0  0  0
 15 17  1  0  0  0
 17 18  1  0  0  0
 18 19  1  0  0  0
 19 20  1  0  0  0
 20 21  1  0  0  0
 21 22  1  0  0  0
 21 23  1  0  0  0
 21 24  1  0  0  0
 24 25  1  0  0  0
 24 26  1  0  0  0
 14 16  1  0  0  0
 16  2  1  0  0  0
 16  6  1  0  0  0
 13  8  1  0  0  0
 24 18  1  0  0  0
M  CHG 1  24   1
M  END
> <minimizedAffinity>
-5.13046

> <CNNscore>
0.3833591938

> <CNNaffinity>
4.6873693466

> <CNN_VS>
1.7969461679

> <CNNaffinity_variance>
0.3608196676

$$$$
[H]C1=C2C([H])([H])C([H])([H])C([H])([H])C([H])([H])[C@]2([H])/C(=C(\[H])C([H])([H])C2([H])C([H])([H])C([H])([H])C(C([H])([H])[H])(C([H])([H])[H])[N+]2(C([H])([H])[H])C([H])([H])[H])[C@]2([H])[C@@]1([H])C(=O)O[C@@]2([H])C([H])([H])[H]


 26 29  0  0  0  0  0  0  0  0999 V2000
   36.0509  -23.0885   39.1513 C   0  0  0  0  0  0  0  0  0  0  0  0
   35.7261  -21.7161   38.4964 C   0  0  0  0  0  0  0  0  0  0  0  0
   35.2898  -20.9296   39.5760 O   0  0  0  0  0  0  0  0  0  0  0  0
   34.0078  -21.4025   39.8484 C   0  0  0  0  0  0  0  0  0  0  0  0
   33.3157  -21.0378   40.8252 O   0  0  0  0  0  0  0  0  0  0  0  0
   33.6317  -22.3828   38.8023 C   0  0  0  0  0  0  0  0  0  0  0  0
   32.2347  -22.4757   38.4788 C   0  0  0  0  0  0  0  0  0  0  0  0
   31.6631  -22.0068   37.4225 C   0  0  0  0  0  0  0  0  0  0  0  0
   30.2103  -22.1485   37.1639 C   0  0  0  0  0  0  0  0  0  0  0  0
   30.0339  -22.2615   35.6554 C   0  0  0  0  0  0  0  0  0  0  0  0
   31.2140  -22.9010   34.9970 C   0  0  0  0  0  0  0  0  0  0  0  0
   32.5230  -22.2211   35.2040 C   0  0  0  0  0  0  0  0  0  0  0  0
   32.4423  -21.3027   36.4211 C   0  0  0  0  0  0  0  0  0  0  0  0
   33.8675  -20.9635   36.8532 C   0  0  0  0  0  0  0  0  0  0  0  0
   34.2652  -19.8381   36.3452 C   0  0  0  0  0  0  0  0  0  0  0  0
   34.5588  -21.8888   37.6586 C   0  0  0  0  0  0  0  0  0  0  0  0
   35.5471  -19.2145   36.5450 C   0  0  0  0  0  0  0  0  0  0  0  0
   36.4845  -19.7931   35.4331 C   0  0  0  0  0  0  0  0  0  0  0  0
   36.3933  -18.9348   34.2020 C   0  0  0  0  0  0  0  0  0  0  0  0
   37.7019  -18.1490   34.2949 C   0  0  0  0  0  0  0  0  0  0  0  0
   38.6286  -19.2504   34.7868 C   0  0  0  0  0  0  0  0  0  0  0  0
   38.8504  -20.1920   33.6245 C   0  0  0  0  0  0  0  0  0  0  0  0
   39.9523  -18.7331   35.2481 C   0  0  0  0  0  0  0  0  0  0  0  0
   37.8406  -19.8476   35.8439 N   0  0  0  0  0  0  0  0  0  0  0  0
   38.2305  -21.2681   35.8737 C   0  0  0  0  0  0  0  0  0  0  0  0
   38.1420  -19.3171   37.1368 C   0  0  0  0  0  0  0  0  0  0  0  0
  1  2  1  0  0  0
  2  3  1  0  0  0
  3  4  1  0  0  0
  4  5  2  0  0  0
  4  6  1  0  0  0
  6  7  1  0  0  0
  7  8  2  0  0  0
  8  9  1  0  0  0
  9 10  1  0  0  0
 10 11  1  0  0  0
 11 12  1  0  0  0
 12 13  1  0  0  0
 13 14  1  0  0  0
 14 15  2  0  0  0
 15 17  1  0  0  0
 17 18  1  0  0  0
 18 19  1  0  0  0
 19 20  1  0  0  0
 20 21  1  0  0  0
 21 22  1  0  0  0
 21 23  1  0  0  0
 21 24  1  0  0  0
 24 25  1  0  0  0
 24 26  1  0  0  0
 14 16  1  0  0  0
 16  2  1  0  0  0
 16  6  1  0  0  0
 13  8  1  0  0  0
 24 18  1  0  0  0
M  CHG 1  24   1
M  END
> <minimizedAffinity>
-4.82024

> <CNNscore>
0.3832179606

> <CNNaffinity>
4.8428673744

> <CNN_VS>
1.8558737040

> <CNNaffinity_variance>
0.1406482160

$$$$
[H]C1=C2C([H])([H])C([H])([H])C([H])([H])C([H])([H])[C@]2([H])/C(=C(\[H])C([H])([H])C2([H])C([H])([H])C([H])([H])C(C([H])([H])[H])(C([H])([H])[H])[N+]2(C([H])([H])[H])C([H])([H])[H])[C@]2([H])[C@@]1([H])C(=O)O[C@@]2([H])C([H])([H])[H]


 26 29  0  0  0  0  0  0  0  0999 V2000
   43.7738  -18.6923   34.7210 C   0  0  0  0  0  0  0  0  0  0  0  0
   42.3507  -18.4840   35.3119 C   0  0  0  0  0  0  0  0  0  0  0  0
   42.2872  -17.0990   35.5410 O   0  0  0  0  0  0  0  0  0  0  0  0
   43.0750  -16.9025   36.6732 C   0  0  0  0  0  0  0  0  0  0  0  0
   43.3722  -15.7791   37.1379 O   0  0  0  0  0  0  0  0  0  0  0  0
   43.4802  -18.2255   37.2046 C   0  0  0  0  0  0  0  0  0  0  0  0
   43.6786  -18.3162   38.6250 C   0  0  0  0  0  0  0  0  0  0  0  0
   42.8810  -18.8700   39.4731 C   0  0  0  0  0  0  0  0  0  0  0  0
   43.1634  -18.9219   40.9275 C   0  0  0  0  0  0  0  0  0  0  0  0
   42.5659  -20.2206   41.4525 C   0  0  0  0  0  0  0  0  0  0  0  0
   42.5607  -21.2976   40.4156 C   0  0  0  0  0  0  0  0  0  0  0  0
   41.8226  -20.9886   39.1594 C   0  0  0  0  0  0  0  0  0  0  0  0
   41.6429  -19.4785   39.0229 C   0  0  0  0  0  0  0  0  0  0  0  0
   41.2813  -19.1743   37.5705 C   0  0  0  0  0  0  0  0  0  0  0  0
   39.9974  -19.0881   37.4063 C   0  0  0  0  0  0  0  0  0  0  0  0
   42.3234  -19.0862   36.6276 C   0  0  0  0  0  0  0  0  0  0  0  0
   39.3093  -18.8097   36.1730 C   0  0  0  0  0  0  0  0  0  0  0  0
   37.7881  -18.7424   36.5353 C   0  0  0  0  0  0  0  0  0  0  0  0
   37.3422  -17.3069   36.5679 C   0  0  0  0  0  0  0  0  0  0  0  0
   36.5909  -17.2031   35.2400 C   0  0  0  0  0  0  0  0  0  0  0  0
   35.8981  -18.5573   35.2301 C   0  0  0  0  0  0  0  0  0  0  0  0
   34.8046  -18.5008   36.2731 C   0  0  0  0  0  0  0  0  0  0  0  0
   35.2867  -18.8876   33.9073 C   0  0  0  0  0  0  0  0  0  0  0  0
   36.9793  -19.4434   35.6051 N   0  0  0  0  0  0  0  0  0  0  0  0
   36.3443  -20.5568   36.3316 C   0  0  0  0  0  0  0  0  0  0  0  0
   37.6471  -20.0212   34.4808 C   0  0  0  0  0  0  0  0  0  0  0  0
  1  2  1  0  0  0
  2  3  1  0  0  0
  3  4  1  0  0  0
  4  5  2  0  0  0
  4  6  1  0  0  0
  6  7  1  0  0  0
  7  8  2  0  0  0
  8  9  1  0  0  0
  9 10  1  0  0  0
 10 11  1  0  0  0
 11 12  1  0  0  0
 12 13  1  0  0  0
 13 14  1  0  0  0
 14 15  2  0  0  0
 15 17  1  0  0  0
 17 18  1  0  0  0
 18 19  1  0  0  0
 19 20  1  0  0  0
 20 21  1  0  0  0
 21 22  1  0  0  0
 21 23  1  0  0  0
 21 24  1  0  0  0
 24 25  1  0  0  0
 24 26  1  0  0  0
 14 16  1  0  0  0
 16  2  1  0  0  0
 16  6  1  0  0  0
 13  8  1  0  0  0
 24 18  1  0  0  0
M  CHG 1  24   1
M  END
> <minimizedAffinity>
-6.21346

> <CNNscore>
0.3780173659

> <CNNaffinity>
5.0215096474

> <CNN_VS>
1.8982177973

> <CNNaffinity_variance>
0.2649320066

$$$$
[H]c1c([H])c([H])c(C([H])([H])N2C([H])([H])C([H])([H])C([H])(C([H])([H])C([H])([H])N([H])C(=O)c3c([H])c([H])c([H])c([N+](=O)[O-])c3[H])C([H])([H])C2([H])[H])c([H])c1[H]


 28 30  0  0  0  0  0  0  0  0999 V2000
   32.4332  -18.4074   34.3103 C   0  0  0  0  0  0  0  0  0  0  0  0
   35.1591  -18.2605   34.9322 O   0  0  0  0  0  0  0  0  0  0  0  0
   34.4144  -17.3491   35.3713 C   0  0  0  0  0  0  0  0  0  0  0  0
   33.0400  -17.3737   35.0933 N   0  0  0  0  0  0  0  0  0  0  0  0
   32.4072  -16.6275   35.4534 H   0  0  0  0  0  0  0  0  0  0  0  0
   35.0696  -16.3118   36.1577 C   0  0  0  0  0  0  0  0  0  0  0  0
   36.3758  -16.4567   36.5617 C   0  0  0  0  0  0  0  0  0  0  0  0
   37.0051  -15.4589   37.3180 C   0  0  0  0  0  0  0  0  0  0  0  0
   36.3158  -14.3210   37.6632 C   0  0  0  0  0  0  0  0  0  0  0  0
   34.9975  -14.1390   37.2740 C   0  0  0  0  0  0  0  0  0  0  0  0
   34.4204  -15.1581   36.5257 C   0  0  0  0  0  0  0  0  0  0  0  0
   34.2614  -12.9800   37.6136 N   0  0  0  0  0  0  0  0  0  0  0  0
   33.3972  -13.0521   38.4924 O   0  0  0  0  0  0  0  0  0  0  0  0
   34.4973  -11.7977   36.9846 O   0  0  0  0  0  0  0  0  0  0  0  0
   31.2061  -18.9235   35.0025 C   0  0  0  0  0  0  0  0  0  0  0  0
   31.1889  -20.4305   34.7918 C   0  0  0  0  0  0  0  0  0  0  0  0
   30.4084  -21.1242   35.8774 C   0  0  0  0  0  0  0  0  0  0  0  0
   30.3088  -22.5959   35.4617 C   0  0  0  0  0  0  0  0  0  0  0  0
   31.5996  -23.1705   35.3535 N   0  0  0  0  0  0  0  0  0  0  0  0
   32.7014  -22.2892   35.5314 C   0  0  0  0  0  0  0  0  0  0  0  0
   32.5881  -20.9980   34.7637 C   0  0  0  0  0  0  0  0  0  0  0  0
   31.7334  -24.2938   36.2408 C   0  0  0  0  0  0  0  0  0  0  0  0
   32.3447  -23.9912   37.5356 C   0  0  0  0  0  0  0  0  0  0  0  0
   33.6633  -24.3883   37.7110 C   0  0  0  0  0  0  0  0  0  0  0  0
   34.3568  -24.1540   38.8796 C   0  0  0  0  0  0  0  0  0  0  0  0
   33.6887  -23.5022   39.8860 C   0  0  0  0  0  0  0  0  0  0  0  0
   32.3853  -23.1065   39.7207 C   0  0  0  0  0  0  0  0  0  0  0  0
   31.7059  -23.3437   38.5571 C   0  0  0  0  0  0  0  0  0  0  0  0
  2  3  2  0  0  0
  3  4  1  0  0  0
  4  1  1  0  0  0
  1 15  1  0  0  0
 15 16  1  0  0  0
 16 17  1  0  0  0
 17 18  1  0  0  0
 18 19  1  0  0  0
 19 22  1  0  0  0
 22 23  1  0  0  0
 23 24  2  0  0  0
 24 25  1  0  0  0
 25 26  2  0  0  0
 26 27  1  0  0  0
 27 28  2  0  0  0
 19 20  1  0  0  0
 20 21  1  0  0  0
  3  6  1  0  0  0
  6  7  2  0  0  0
  7  8  1  0  0  0
  8  9  2  0  0  0
  9 10  1  0  0  0
 10 12  1  0  0  0
 12 13  2  0  0  0
 12 14  1  0  0  0
 10 11  2  0  0  0
 21 16  1  0  0  0
 11  6  1  0  0  0
 28 23  1  0  0  0
  4  5  1  0  0  0
M  CHG 1  12   1
M  CHG 1  14  -1
M  END
> <minimizedAffinity>
-6.36615

> <CNNscore>
0.5953714252

> <CNNaffinity>
4.9556035995

> <CNN_VS>
2.9504246712

> <CNNaffinity_variance>
0.3485488296

$$$$
[H]c1c([H])c([H])c(C([H])([H])N2C([H])([H])C([H])([H])C([H])(C([H])([H])C([H])([H])N([H])C(=O)c3c([H])c([H])c([H])c([N+](=O)[O-])c3[H])C([H])([H])C2([H])[H])c([H])c1[H]


 28 30  0  0  0  0  0  0  0  0999 V2000
   39.1856  -19.7574   33.3734 C   0  0  0  0  0  0  0  0  0  0  0  0
   37.5288  -20.0086   35.6163 O   0  0  0  0  0  0  0  0  0  0  0  0
   37.1910  -19.1784   34.7360 C   0  0  0  0  0  0  0  0  0  0  0  0
   37.9818  -19.0132   33.5897 N   0  0  0  0  0  0  0  0  0  0  0  0
   37.7136  -18.3317   32.8476 H   0  0  0  0  0  0  0  0  0  0  0  0
   35.9641  -18.4358   34.9953 C   0  0  0  0  0  0  0  0  0  0  0  0
   36.0100  -17.1607   35.5075 C   0  0  0  0  0  0  0  0  0  0  0  0
   34.8298  -16.4475   35.7566 C   0  0  0  0  0  0  0  0  0  0  0  0
   33.6103  -17.0220   35.4887 C   0  0  0  0  0  0  0  0  0  0  0  0
   33.5238  -18.3056   34.9716 C   0  0  0  0  0  0  0  0  0  0  0  0
   34.7233  -18.9693   34.7429 C   0  0  0  0  0  0  0  0  0  0  0  0
   32.2845  -18.9244   34.6858 N   0  0  0  0  0  0  0  0  0  0  0  0
   32.1721  -19.6001   33.6586 O   0  0  0  0  0  0  0  0  0  0  0  0
   31.2259  -18.7816   35.5273 O   0  0  0  0  0  0  0  0  0  0  0  0
   40.3750  -18.8466   33.4560 C   0  0  0  0  0  0  0  0  0  0  0  0
   41.1474  -19.2514   34.7032 C   0  0  0  0  0  0  0  0  0  0  0  0
   40.6609  -18.4995   35.9142 C   0  0  0  0  0  0  0  0  0  0  0  0
   41.3774  -19.1170   37.1200 C   0  0  0  0  0  0  0  0  0  0  0  0
   42.7811  -18.9703   36.9930 N   0  0  0  0  0  0  0  0  0  0  0  0
   43.2506  -18.4052   35.7755 C   0  0  0  0  0  0  0  0  0  0  0  0
   42.6274  -18.9995   34.5395 C   0  0  0  0  0  0  0  0  0  0  0  0
   43.3191  -18.2340   38.1046 C   0  0  0  0  0  0  0  0  0  0  0  0
   43.3839  -18.9747   39.3652 C   0  0  0  0  0  0  0  0  0  0  0  0
   44.3024  -20.0136   39.4318 C   0  0  0  0  0  0  0  0  0  0  0  0
   44.4689  -20.7817   40.5648 C   0  0  0  0  0  0  0  0  0  0  0  0
   43.6813  -20.4813   41.6481 C   0  0  0  0  0  0  0  0  0  0  0  0
   42.7710  -19.4563   41.5904 C   0  0  0  0  0  0  0  0  0  0  0  0
   42.6134  -18.6998   40.4613 C   0  0  0  0  0  0  0  0  0  0  0  0
  2  3  2  0  0  0
  3  4  1  0  0  0
  4  1  1  0  0  0
  1 15  1  0  0  0
 15 16  1  0  0  0
 16 17  1  0  0  0
 17 18  1  0  0  0
 18 19  1  0  0  0
 19 22  1  0  0  0
 22 23  1  0  0  0
 23 24  2  0  0  0
 24 25  1  0  0  0
 25 26  2  0  0  0
 26 27  1  0  0  0
 27 28  2  0  0  0
 19 20  1  0  0  0
 20 21  1  0  0  0
  3  6  1  0  0  0
  6  7  2  0  0  0
  7  8  1  0  0  0
  8  9  2  0  0  0
  9 10  1  0  0  0
 10 12  1  0  0  0
 12 13  2  0  0  0
 12 14  1  0  0  0
 10 11  2  0  0  0
 21 16  1  0  0  0
 11  6  1  0  0  0
 28 23  1  0  0  0
  4  5  1  0  0  0
M  CHG 1  12   1
M  CHG 1  14  -1
M  END
> <minimizedAffinity>
-6.08524

> <CNNscore>
0.5215429068

> <CNNaffinity>
4.5564188957

> <CNN_VS>
2.3763680458

> <CNNaffinity_variance>
0.5660992861

$$$$
[H]c1c([H])c([H])c(C([H])([H])N2C([H])([H])C([H])([H])C([H])(C([H])([H])C([H])([H])N([H])C(=O)c3c([H])c([H])c([H])c([N+](=O)[O-])c3[H])C([H])([H])C2([H])[H])c([H])c1[H]


 28 30  0  0  0  0  0  0  0  0999 V2000
   36.0950  -13.6209   37.1538 C   0  0  0  0  0  0  0  0  0  0  0  0
   33.6266  -13.3212   38.4406 O   0  0  0  0  0  0  0  0  0  0  0  0
   34.0139  -12.3808   37.7031 C   0  0  0  0  0  0  0  0  0  0  0  0
   35.2410  -12.4783   37.0312 N   0  0  0  0  0  0  0  0  0  0  0  0
   35.5753  -11.7090   36.4121 H   0  0  0  0  0  0  0  0  0  0  0  0
   33.1208  -11.2331   37.6093 C   0  0  0  0  0  0  0  0  0  0  0  0
   33.6177   -9.9750   37.3631 C   0  0  0  0  0  0  0  0  0  0  0  0
   32.7583   -8.8718   37.2732 C   0  0  0  0  0  0  0  0  0  0  0  0
   31.4035   -9.0416   37.4315 C   0  0  0  0  0  0  0  0  0  0  0  0
   30.8653  -10.2949   37.6808 C   0  0  0  0  0  0  0  0  0  0  0  0
   31.7605  -11.3549   37.7605 C   0  0  0  0  0  0  0  0  0  0  0  0
   29.4763  -10.5021   37.8489 N   0  0  0  0  0  0  0  0  0  0  0  0
   28.8954  -11.3088   37.1167 O   0  0  0  0  0  0  0  0  0  0  0  0
   28.7831   -9.8251   38.8029 O   0  0  0  0  0  0  0  0  0  0  0  0
   36.0459  -14.4368   35.8957 C   0  0  0  0  0  0  0  0  0  0  0  0
   35.3438  -15.7398   36.2491 C   0  0  0  0  0  0  0  0  0  0  0  0
   36.0198  -16.9178   35.5980 C   0  0  0  0  0  0  0  0  0  0  0  0
   35.3443  -18.1699   36.1676 C   0  0  0  0  0  0  0  0  0  0  0  0
   33.9619  -18.1745   35.8561 N   0  0  0  0  0  0  0  0  0  0  0  0
   33.4571  -17.0175   35.2014 C   0  0  0  0  0  0  0  0  0  0  0  0
   33.8951  -15.7171   35.8231 C   0  0  0  0  0  0  0  0  0  0  0  0
   33.6140  -19.3464   35.0992 C   0  0  0  0  0  0  0  0  0  0  0  0
   32.2756  -19.8778   35.3603 C   0  0  0  0  0  0  0  0  0  0  0  0
   32.1750  -20.8657   36.3304 C   0  0  0  0  0  0  0  0  0  0  0  0
   30.9709  -21.4412   36.6774 C   0  0  0  0  0  0  0  0  0  0  0  0
   29.8507  -20.9978   36.0197 C   0  0  0  0  0  0  0  0  0  0  0  0
   29.9416  -20.0219   35.0595 C   0  0  0  0  0  0  0  0  0  0  0  0
   31.1413  -19.4570   34.7224 C   0  0  0  0  0  0  0  0  0  0  0  0
  2  3  2  0  0  0
  3  4  1  0  0  0
  4  1  1  0  0  0
  1 15  1  0  0  0
 15 16  1  0  0  0
 16 17  1  0  0  0
 17 18  1  0  0  0
 18 19  1  0  0  0
 19 22  1  0  0  0
 22 23  1  0  0  0
 23 24  2  0  0  0
 24 25  1  0  0  0
 25 26  2  0  0  0
 26 27  1  0  0  0
 27 28  2  0  0  0
 19 20  1  0  0  0
 20 21  1  0  0  0
  3  6  1  0  0  0
  6  7  2  0  0  0
  7  8  1  0  0  0
  8  9  2  0  0  0
  9 10  1  0  0  0
 10 12  1  0  0  0
 12 13  2  0  0  0
 12 14  1  0  0  0
 10 11  2  0  0  0
 21 16  1  0  0  0
 11  6  1  0  0  0
 28 23  1  0  0  0
  4  5  1  0  0  0
M  CHG 1  12   1
M  CHG 1  14  -1
M  END
> <minimizedAffinity>
-8.77748

> <CNNscore>
0.5126819015

> <CNNaffinity>
5.7591271400

> <CNN_VS>
2.9526002407

> <CNNaffinity_variance>
0.0981584638

$$$$
[H]c1c([H])c([H])c(C([H])([H])N2C([H])([H])C([H])([H])C([H])(C([H])([H])C([H])([H])N([H])C(=O)c3c([H])c([H])c([H])c([N+](=O)[O-])c3[H])C([H])([H])C2([H])[H])c([H])c1[H]


 28 30  0  0  0  0  0  0  0  0999 V2000
   34.7076  -18.3086   35.0253 C   0  0  0  0  0  0  0  0  0  0  0  0
   33.5674  -19.8660   37.0535 O   0  0  0  0  0  0  0  0  0  0  0  0
   33.1697  -20.0630   35.8782 C   0  0  0  0  0  0  0  0  0  0  0  0
   33.7085  -19.3138   34.8222 N   0  0  0  0  0  0  0  0  0  0  0  0
   33.3928  -19.4676   33.8406 H   0  0  0  0  0  0  0  0  0  0  0  0
   32.1479  -21.0889   35.7131 C   0  0  0  0  0  0  0  0  0  0  0  0
   32.3647  -22.1701   34.8919 C   0  0  0  0  0  0  0  0  0  0  0  0
   31.3816  -23.1561   34.7336 C   0  0  0  0  0  0  0  0  0  0  0  0
   30.1859  -23.0478   35.4028 C   0  0  0  0  0  0  0  0  0  0  0  0
   29.9309  -21.9721   36.2397 C   0  0  0  0  0  0  0  0  0  0  0  0
   30.9384  -21.0227   36.3618 C   0  0  0  0  0  0  0  0  0  0  0  0
   28.7109  -21.8320   36.9415 N   0  0  0  0  0  0  0  0  0  0  0  0
   27.7311  -22.4919   36.5825 O   0  0  0  0  0  0  0  0  0  0  0  0
   28.6111  -20.9835   37.9993 O   0  0  0  0  0  0  0  0  0  0  0  0
   35.6359  -18.2610   33.8474 C   0  0  0  0  0  0  0  0  0  0  0  0
   37.0490  -18.2015   34.4090 C   0  0  0  0  0  0  0  0  0  0  0  0
   37.8283  -19.4416   34.0575 C   0  0  0  0  0  0  0  0  0  0  0  0
   39.2693  -19.1871   34.5130 C   0  0  0  0  0  0  0  0  0  0  0  0
   39.3172  -18.9679   35.9121 N   0  0  0  0  0  0  0  0  0  0  0  0
   38.0668  -18.9145   36.5873 C   0  0  0  0  0  0  0  0  0  0  0  0
   37.0378  -18.0465   35.9112 C   0  0  0  0  0  0  0  0  0  0  0  0
   40.1683  -19.9349   36.5506 C   0  0  0  0  0  0  0  0  0  0  0  0
   41.2335  -19.3706   37.3805 C   0  0  0  0  0  0  0  0  0  0  0  0
   41.2528  -19.7520   38.7152 C   0  0  0  0  0  0  0  0  0  0  0  0
   42.2092  -19.2996   39.5996 C   0  0  0  0  0  0  0  0  0  0  0  0
   43.1619  -18.4419   39.1091 C   0  0  0  0  0  0  0  0  0  0  0  0
   43.1498  -18.0599   37.7913 C   0  0  0  0  0  0  0  0  0  0  0  0
   42.1964  -18.5145   36.9217 C   0  0  0  0  0  0  0  0  0  0  0  0
  2  3  2  0  0  0
  3  4  1  0  0  0
  4  1  1  0  0  0
  1 15  1  0  0  0
 15 16  1  0  0  0
 16 17  1  0  0  0
 17 18  1  0  0  0
 18 19  1  0  0  0
 19 22  1  0  0  0
 22 23  1  0  0  0
 23 24  2  0  0  0
 24 25  1  0  0  0
 25 26  2  0  0  0
 26 27  1  0  0  0
 27 28  2  0  0  0
 19 20  1  0  0  0
 20 21  1  0  0  0
  3  6  1  0  0  0
  6  7  2  0  0  0
  7  8  1  0  0  0
  8  9  2  0  0  0
  9 10  1  0  0  0
 10 12  1  0  0  0
 12 13  2  0  0  0
 12 14  1  0  0  0
 10 11  2  0  0  0
 21 16  1  0  0  0
 11  6  1  0  0  0
 28 23  1  0  0  0
  4  5  1  0  0  0
M  CHG 1  12   1
M  CHG 1  14  -1
M  END
> <minimizedAffinity>
-5.93262

> <CNNscore>
0.4521960318

> <CNNaffinity>
4.3523063660

> <CNN_VS>
1.9680956602

> <CNNaffinity_variance>
0.6286567450

$$$$
[H]c1c([H])c([H])c(C([H])([H])N2C([H])([H])C([H])([H])C([H])(C([H])([H])C([H])([H])N([H])C(=O)c3c([H])c([H])c([H])c([N+](=O)[O-])c3[H])C([H])([H])C2([H])[H])c([H])c1[H]


 28 30  0  0  0  0  0  0  0  0999 V2000
   38.2523  -19.1398   36.3507 C   0  0  0  0  0  0  0  0  0  0  0  0
   35.7031  -18.0091   36.5992 O   0  0  0  0  0  0  0  0  0  0  0  0
   36.6893  -17.2326   36.6511 C   0  0  0  0  0  0  0  0  0  0  0  0
   37.9896  -17.7437   36.5291 N   0  0  0  0  0  0  0  0  0  0  0  0
   38.8187  -17.1128   36.5658 H   0  0  0  0  0  0  0  0  0  0  0  0
   36.3816  -15.8208   36.8402 C   0  0  0  0  0  0  0  0  0  0  0  0
   37.3771  -14.9178   37.1297 C   0  0  0  0  0  0  0  0  0  0  0  0
   37.0804  -13.5604   37.3115 C   0  0  0  0  0  0  0  0  0  0  0  0
   35.7831  -13.1199   37.2009 C   0  0  0  0  0  0  0  0  0  0  0  0
   34.7523  -14.0005   36.9099 C   0  0  0  0  0  0  0  0  0  0  0  0
   35.1002  -15.3352   36.7390 C   0  0  0  0  0  0  0  0  0  0  0  0
   33.4077  -13.5785   36.7900 N   0  0  0  0  0  0  0  0  0  0  0  0
   32.8722  -13.5844   35.6775 O   0  0  0  0  0  0  0  0  0  0  0  0
   32.7074  -13.1704   37.8817 O   0  0  0  0  0  0  0  0  0  0  0  0
   38.8337  -19.3836   34.9892 C   0  0  0  0  0  0  0  0  0  0  0  0
   40.2279  -19.9533   35.2068 C   0  0  0  0  0  0  0  0  0  0  0  0
   40.2245  -21.0080   36.2821 C   0  0  0  0  0  0  0  0  0  0  0  0
   41.6266  -21.6267   36.2816 C   0  0  0  0  0  0  0  0  0  0  0  0
   42.6042  -20.6434   36.5737 N   0  0  0  0  0  0  0  0  0  0  0  0
   42.1388  -19.3053   36.6962 C   0  0  0  0  0  0  0  0  0  0  0  0
   41.2097  -18.8724   35.5922 C   0  0  0  0  0  0  0  0  0  0  0  0
   43.3529  -21.0021   37.7476 C   0  0  0  0  0  0  0  0  0  0  0  0
   42.8857  -20.3891   38.9917 C   0  0  0  0  0  0  0  0  0  0  0  0
   43.6833  -19.3899   39.5327 C   0  0  0  0  0  0  0  0  0  0  0  0
   43.3507  -18.7266   40.6950 C   0  0  0  0  0  0  0  0  0  0  0  0
   42.1817  -19.0927   41.3140 C   0  0  0  0  0  0  0  0  0  0  0  0
   41.3878  -20.0793   40.7859 C   0  0  0  0  0  0  0  0  0  0  0  0
   41.7267  -20.7316   39.6320 C   0  0  0  0  0  0  0  0  0  0  0  0
  2  3  2  0  0  0
  3  4  1  0  0  0
  4  1  1  0  0  0
  1 15  1  0  0  0
 15 16  1  0  0  0
 16 17  1  0  0  0
 17 18  1  0  0  0
 18 19  1  0  0  0
 19 22  1  0  0  0
 22 23  1  0  0  0
 23 24  2  0  0  0
 24 25  1  0  0  0
 25 26  2  0  0  0
 26 27  1  0  0  0
 27 28  2  0  0  0
 19 20  1  0  0  0
 20 21  1  0  0  0
  3  6  1  0  0  0
  6  7  2  0  0  0
  7  8  1  0  0  0
  8  9  2  0  0  0
  9 10  1  0  0  0
 10 12  1  0  0  0
 12 13  2  0  0  0
 12 14  1  0  0  0
 10 11  2  0  0  0
 21 16  1  0  0  0
 11  6  1  0  0  0
 28 23  1  0  0  0
  4  5  1  0  0  0
M  CHG 1  12   1
M  CHG 1  14  -1
M  END
> <minimizedAffinity>
-6.35999

> <CNNscore>
0.4167135954

> <CNNaffinity>
4.8457398415

> <CNN_VS>
2.0192856789

> <CNNaffinity_variance>
0.2488510609

$$$$
[H]c1c([H])c([H])c(C([H])([H])N2C([H])([H])C([H])([H])C([H])(C([H])([H])C([H])([H])N([H])C(=O)c3c([H])c([H])c([H])c([N+](=O)[O-])c3[H])C([H])([H])C2([H])[H])c([H])c1[H]


 28 30  0  0  0  0  0  0  0  0999 V2000
   35.2322  -18.7097   34.0592 C   0  0  0  0  0  0  0  0  0  0  0  0
   33.4113  -17.2374   35.5941 O   0  0  0  0  0  0  0  0  0  0  0  0
   34.5457  -16.7340   35.3994 C   0  0  0  0  0  0  0  0  0  0  0  0
   35.4966  -17.4259   34.6352 N   0  0  0  0  0  0  0  0  0  0  0  0
   36.4411  -17.0206   34.4605 H   0  0  0  0  0  0  0  0  0  0  0  0
   34.7789  -15.4302   36.0071 C   0  0  0  0  0  0  0  0  0  0  0  0
   33.7479  -14.5345   36.1650 C   0  0  0  0  0  0  0  0  0  0  0  0
   33.9731  -13.2809   36.7493 C   0  0  0  0  0  0  0  0  0  0  0  0
   35.2349  -12.9363   37.1714 C   0  0  0  0  0  0  0  0  0  0  0  0
   36.2997  -13.8130   37.0292 C   0  0  0  0  0  0  0  0  0  0  0  0
   36.0228  -15.0427   36.4438 C   0  0  0  0  0  0  0  0  0  0  0  0
   37.6094  -13.4878   37.4528 N   0  0  0  0  0  0  0  0  0  0  0  0
   38.0252  -13.9405   38.5236 O   0  0  0  0  0  0  0  0  0  0  0  0
   38.4063  -12.6876   36.6954 O   0  0  0  0  0  0  0  0  0  0  0  0
   36.2002  -19.7230   34.5953 C   0  0  0  0  0  0  0  0  0  0  0  0
   37.5930  -19.1451   34.3908 C   0  0  0  0  0  0  0  0  0  0  0  0
   38.5018  -20.1381   33.7150 C   0  0  0  0  0  0  0  0  0  0  0  0
   39.8012  -19.3880   33.4024 C   0  0  0  0  0  0  0  0  0  0  0  0
   40.4033  -18.9177   34.5958 N   0  0  0  0  0  0  0  0  0  0  0  0
   39.6695  -19.1197   35.7969 C   0  0  0  0  0  0  0  0  0  0  0  0
   38.2162  -18.7341   35.7036 C   0  0  0  0  0  0  0  0  0  0  0  0
   41.7281  -19.4561   34.7446 C   0  0  0  0  0  0  0  0  0  0  0  0
   42.7255  -18.5150   35.2560 C   0  0  0  0  0  0  0  0  0  0  0  0
   43.2018  -18.7469   36.5392 C   0  0  0  0  0  0  0  0  0  0  0  0
   44.1498  -17.9406   37.1329 C   0  0  0  0  0  0  0  0  0  0  0  0
   44.6179  -16.8783   36.4004 C   0  0  0  0  0  0  0  0  0  0  0  0
   44.1523  -16.6420   35.1316 C   0  0  0  0  0  0  0  0  0  0  0  0
   43.2114  -17.4482   34.5513 C   0  0  0  0  0  0  0  0  0  0  0  0
  2  3  2  0  0  0
  3  4  1  0  0  0
  4  1  1  0  0  0
  1 15  1  0  0  0
 15 16  1  0  0  0
 16 17  1  0  0  0
 17 18  1  0  0  0
 18 19  1  0  0  0
 19 22  1  0  0  0
 22 23  1  0  0  0
 23 24  2  0  0  0
 24 25  1  0  0  0
 25 26  2  0  0  0
 26 27  1  0  0  0
 27 28  2  0  0  0
 19 20  1  0  0  0
 20 21  1  0  0  0
  3  6  1  0  0  0
  6  7  2  0  0  0
  7  8  1  0  0  0
  8  9  2  0  0  0
  9 10  1  0  0  0
 10 12  1  0  0  0
 12 13  2  0  0  0
 12 14  1  0  0  0
 10 11  2  0  0  0
 21 16  1  0  0  0
 11  6  1  0  0  0
 28 23  1  0  0  0
  4  5  1  0  0  0
M  CHG 1  12   1
M  CHG 1  14  -1
M  END
> <minimizedAffinity>
-6.09489

> <CNNscore>
0.3809367120

> <CNNaffinity>
4.9355812073

> <CNN_VS>
1.8801441193

> <CNNaffinity_variance>
0.1433987319

$$$$
[H]c1c([H])c([H])c(C([H])([H])N2C([H])([H])C([H])([H])C([H])(C([H])([H])C([H])([H])N([H])C(=O)c3c([H])c([H])c([H])c([N+](=O)[O-])c3[H])C([H])([H])C2([H])[H])c([H])c1[H]


 28 30  0  0  0  0  0  0  0  0999 V2000
   34.5662  -11.9631   37.2463 C   0  0  0  0  0  0  0  0  0  0  0  0
   32.8155  -12.8531   39.2418 O   0  0  0  0  0  0  0  0  0  0  0  0
   32.3171  -12.2435   38.2629 C   0  0  0  0  0  0  0  0  0  0  0  0
   33.1466  -11.7780   37.2323 N   0  0  0  0  0  0  0  0  0  0  0  0
   32.7488  -11.2741   36.4109 H   0  0  0  0  0  0  0  0  0  0  0  0
   30.8705  -12.0691   38.2881 C   0  0  0  0  0  0  0  0  0  0  0  0
   30.2701  -11.0746   37.5527 C   0  0  0  0  0  0  0  0  0  0  0  0
   28.8790  -10.9075   37.5776 C   0  0  0  0  0  0  0  0  0  0  0  0
   28.1004  -11.7426   38.3427 C   0  0  0  0  0  0  0  0  0  0  0  0
   28.6695  -12.7570   39.0975 C   0  0  0  0  0  0  0  0  0  0  0  0
   30.0526  -12.8798   39.0377 C   0  0  0  0  0  0  0  0  0  0  0  0
   27.8957  -13.6321   39.8950 N   0  0  0  0  0  0  0  0  0  0  0  0
   27.8138  -14.8222   39.5767 O   0  0  0  0  0  0  0  0  0  0  0  0
   27.2477  -13.1755   40.9998 O   0  0  0  0  0  0  0  0  0  0  0  0
   34.9902  -12.7781   36.0600 C   0  0  0  0  0  0  0  0  0  0  0  0
   35.0299  -14.2281   36.5199 C   0  0  0  0  0  0  0  0  0  0  0  0
   36.2332  -14.9438   35.9643 C   0  0  0  0  0  0  0  0  0  0  0  0
   36.2618  -16.3212   36.6356 C   0  0  0  0  0  0  0  0  0  0  0  0
   35.0845  -17.0481   36.3295 N   0  0  0  0  0  0  0  0  0  0  0  0
   34.0897  -16.3568   35.5848 C   0  0  0  0  0  0  0  0  0  0  0  0
   33.7861  -14.9733   36.0978 C   0  0  0  0  0  0  0  0  0  0  0  0
   35.4061  -18.2851   35.6711 C   0  0  0  0  0  0  0  0  0  0  0  0
   34.2802  -19.2030   35.4929 C   0  0  0  0  0  0  0  0  0  0  0  0
   33.9233  -19.5063   34.1860 C   0  0  0  0  0  0  0  0  0  0  0  0
   32.8878  -20.3649   33.8826 C   0  0  0  0  0  0  0  0  0  0  0  0
   32.2058  -20.9222   34.9354 C   0  0  0  0  0  0  0  0  0  0  0  0
   32.5520  -20.6275   36.2299 C   0  0  0  0  0  0  0  0  0  0  0  0
   33.5813  -19.7742   36.5205 C   0  0  0  0  0  0  0  0  0  0  0  0
  2  3  2  0  0  0
  3  4  1  0  0  0
  4  1  1  0  0  0
  1 15  1  0  0  0
 15 16  1  0  0  0
 16 17  1  0  0  0
 17 18  1  0  0  0
 18 19  1  0  0  0
 19 22  1  0  0  0
 22 23  1  0  0  0
 23 24  2  0  0  0
 24 25  1  0  0  0
 25 26  2  0  0  0
 26 27  1  0  0  0
 27 28  2  0  0  0
 19 20  1  0  0  0
 20 21  1  0  0  0
  3  6  1  0  0  0
  6  7  2  0  0  0
  7  8  1  0  0  0
  8  9  2  0  0  0
  9 10  1  0  0  0
 10 12  1  0  0  0
 12 13  2  0  0  0
 12 14  1  0  0  0
 10 11  2  0  0  0
 21 16  1  0  0  0
 11  6  1  0  0  0
 28 23  1  0  0  0
  4  5  1  0  0  0
M  CHG 1  12   1
M  CHG 1  14  -1
M  END
> <minimizedAffinity>
-8.14300

> <CNNscore>
0.3807461560

> <CNNaffinity>
5.6338682175

> <CNN_VS>
2.1450736523

> <CNNaffinity_variance>
0.1337934583

$$$$
[H]c1c([H])c([H])c(C([H])([H])N2C([H])([H])C([H])([H])C([H])(C([H])([H])C([H])([H])N([H])C(=O)c3c([H])c([H])c([H])c([N+](=O)[O-])c3[H])C([H])([H])C2([H])[H])c([H])c1[H]


 28 30  0  0  0  0  0  0  0  0999 V2000
   37.1190  -18.1065   34.2897 C   0  0  0  0  0  0  0  0  0  0  0  0
   38.9241  -20.1901   34.7788 O   0  0  0  0  0  0  0  0  0  0  0  0
   39.0761  -19.1265   35.4299 C   0  0  0  0  0  0  0  0  0  0  0  0
   38.1990  -18.0510   35.2279 N   0  0  0  0  0  0  0  0  0  0  0  0
   38.3084  -17.1629   35.7629 H   0  0  0  0  0  0  0  0  0  0  0  0
   40.1898  -19.1062   36.3696 C   0  0  0  0  0  0  0  0  0  0  0  0
   40.1834  -19.9120   37.4836 C   0  0  0  0  0  0  0  0  0  0  0  0
   41.2547  -19.8918   38.3867 C   0  0  0  0  0  0  0  0  0  0  0  0
   42.3262  -19.0605   38.1631 C   0  0  0  0  0  0  0  0  0  0  0  0
   42.3686  -18.2337   37.0508 C   0  0  0  0  0  0  0  0  0  0  0  0
   41.2815  -18.2920   36.1869 C   0  0  0  0  0  0  0  0  0  0  0  0
   43.4563  -17.3671   36.7931 N   0  0  0  0  0  0  0  0  0  0  0  0
   44.6081  -17.7905   36.9289 O   0  0  0  0  0  0  0  0  0  0  0  0
   43.2438  -16.0828   36.4003 O   0  0  0  0  0  0  0  0  0  0  0  0
   35.8743  -17.5370   34.9042 C   0  0  0  0  0  0  0  0  0  0  0  0
   34.7800  -18.5774   34.7146 C   0  0  0  0  0  0  0  0  0  0  0  0
   33.5031  -17.9436   34.2286 C   0  0  0  0  0  0  0  0  0  0  0  0
   32.5472  -19.0968   33.9042 C   0  0  0  0  0  0  0  0  0  0  0  0
   32.2907  -19.8709   35.0630 N   0  0  0  0  0  0  0  0  0  0  0  0
   33.0203  -19.5206   36.2323 C   0  0  0  0  0  0  0  0  0  0  0  0
   34.4947  -19.3161   36.0006 C   0  0  0  0  0  0  0  0  0  0  0  0
   30.8843  -19.8913   35.3611 C   0  0  0  0  0  0  0  0  0  0  0  0
   30.2851  -21.2247   35.4311 C   0  0  0  0  0  0  0  0  0  0  0  0
   31.1186  -22.2987   35.1500 C   0  0  0  0  0  0  0  0  0  0  0  0
   30.6801  -23.6054   35.1908 C   0  0  0  0  0  0  0  0  0  0  0  0
   29.3655  -23.8161   35.5250 C   0  0  0  0  0  0  0  0  0  0  0  0
   28.5351  -22.7601   35.8041 C   0  0  0  0  0  0  0  0  0  0  0  0
   28.9800  -21.4670   35.7608 C   0  0  0  0  0  0  0  0  0  0  0  0
  2  3  2  0  0  0
  3  4  1  0  0  0
  4  1  1  0  0  0
  1 15  1  0  0  0
 15 16  1  0  0  0
 16 17  1  0  0  0
 17 18  1  0  0  0
 18 19  1  0  0  0
 19 22  1  0  0  0
 22 23  1  0  0  0
 23 24  2  0  0  0
 24 25  1  0  0  0
 25 26  2  0  0  0
 26 27  1  0  0  0
 27 28  2  0  0  0
 19 20  1  0  0  0
 20 21  1  0  0  0
  3  6  1  0  0  0
  6  7  2  0  0  0
  7  8  1  0  0  0
  8  9  2  0  0  0
  9 10  1  0  0  0
 10 12  1  0  0  0
 12 13  2  0  0  0
 12 14  1  0  0  0
 10 11  2  0  0  0
 21 16  1  0  0  0
 11  6  1  0  0  0
 28 23  1  0  0  0
  4  5  1  0  0  0
M  CHG 1  12   1
M  CHG 1  14  -1
M  END
> <minimizedAffinity>
-6.23030

> <CNNscore>
0.3680834472

> <CNNaffinity>
4.4645433426

> <CNN_VS>
1.6433244944

> <CNNaffinity_variance>
0.7246401906

$$$$
[H]c1c([H])c([H])c(C([H])([H])N2C([H])([H])C([H])([H])C([H])(C([H])([H])C([H])([H])N([H])C(=O)c3c([H])c([H])c([H])c([N+](=O)[O-])c3[H])C([H])([H])C2([H])[H])c([H])c1[H]


 28 30  0  0  0  0  0  0  0  0999 V2000
   35.6778  -13.5595   36.6506 C   0  0  0  0  0  0  0  0  0  0  0  0
   33.6513  -13.0726   38.5201 O   0  0  0  0  0  0  0  0  0  0  0  0
   33.7729  -12.2580   37.5715 C   0  0  0  0  0  0  0  0  0  0  0  0
   34.7689  -12.4542   36.6040 N   0  0  0  0  0  0  0  0  0  0  0  0
   34.8808  -11.7902   35.8080 H   0  0  0  0  0  0  0  0  0  0  0  0
   32.8342  -11.1433   37.5623 C   0  0  0  0  0  0  0  0  0  0  0  0
   33.2768   -9.8541   37.3823 C   0  0  0  0  0  0  0  0  0  0  0  0
   32.3736   -8.7827   37.3737 C   0  0  0  0  0  0  0  0  0  0  0  0
   31.0300   -9.0155   37.5464 C   0  0  0  0  0  0  0  0  0  0  0  0
   30.5460  -10.3017   37.7305 C   0  0  0  0  0  0  0  0  0  0  0  0
   31.4831  -11.3280   37.7308 C   0  0  0  0  0  0  0  0  0  0  0  0
   29.1699  -10.5737   37.9113 N   0  0  0  0  0  0  0  0  0  0  0  0
   28.5894  -11.3034   37.1019 O   0  0  0  0  0  0  0  0  0  0  0  0
   28.4883  -10.0419   38.9609 O   0  0  0  0  0  0  0  0  0  0  0  0
   35.0086  -14.7977   36.1309 C   0  0  0  0  0  0  0  0  0  0  0  0
   36.1161  -15.7961   35.8271 C   0  0  0  0  0  0  0  0  0  0  0  0
   35.6120  -16.9250   34.9667 C   0  0  0  0  0  0  0  0  0  0  0  0
   36.8418  -17.7545   34.5820 C   0  0  0  0  0  0  0  0  0  0  0  0
   37.4726  -18.2748   35.7393 N   0  0  0  0  0  0  0  0  0  0  0  0
   36.9407  -17.8590   36.9908 C   0  0  0  0  0  0  0  0  0  0  0  0
   36.6969  -16.3760   37.0948 C   0  0  0  0  0  0  0  0  0  0  0  0
   37.5223  -19.7109   35.6904 C   0  0  0  0  0  0  0  0  0  0  0  0
   38.8096  -20.2726   35.2790 C   0  0  0  0  0  0  0  0  0  0  0  0
   39.9480  -19.6113   35.7192 C   0  0  0  0  0  0  0  0  0  0  0  0
   41.2203  -20.0439   35.4101 C   0  0  0  0  0  0  0  0  0  0  0  0
   41.3289  -21.1726   34.6367 C   0  0  0  0  0  0  0  0  0  0  0  0
   40.2086  -21.8320   34.1974 C   0  0  0  0  0  0  0  0  0  0  0  0
   38.9504  -21.3947   34.5097 C   0  0  0  0  0  0  0  0  0  0  0  0
  2  3  2  0  0  0
  3  4  1  0  0  0
  4  1  1  0  0  0
  1 15  1  0  0  0
 15 16  1  0  0  0
 16 17  1  0  0  0
 17 18  1  0  0  0
 18 19  1  0  0  0
 19 22  1  0  0  0
 22 23  1  0  0  0
 23 24  2  0  0  0
 24 25  1  0  0  0
 25 26  2  0  0  0
 26 27  1  0  0  0
 27 28  2  0  0  0
 19 20  1  0  0  0
 20 21  1  0  0  0
  3  6  1  0  0  0
  6  7  2  0  0  0
  7  8  1  0  0  0
  8  9  2  0  0  0
  9 10  1  0  0  0
 10 12  1  0  0  0
 12 13  2  0  0  0
 12 14  1  0  0  0
 10 11  2  0  0  0
 21 16  1  0  0  0
 11  6  1  0  0  0
 28 23  1  0  0  0
  4  5  1  0  0  0
M  CHG 1  12   1
M  CHG 1  14  -1
M  END
> <minimizedAffinity>
-8.00101

> <CNNscore>
0.3553155661

> <CNNaffinity>
5.3130478859

> <CNN_VS>
1.8878085613

> <CNNaffinity_variance>
0.1321237832

$$$$
[H]OC(=O)c1c([H])c([H])c(OC2([H])C([H])([H])SC2([H])[H])c([H])c1[H]


 15 16  0  0  0  0  0  0  0  0999 V2000
   30.1479  -21.0158   35.8011 C   0  0  0  0  0  0  0  0  0  0  0  0
   31.3790  -21.2161   36.4091 C   0  0  0  0  0  0  0  0  0  0  0  0
   32.3755  -20.2570   36.2659 C   0  0  0  0  0  0  0  0  0  0  0  0
   32.1915  -19.1041   35.5386 C   0  0  0  0  0  0  0  0  0  0  0  0
   30.9555  -18.9151   34.9350 C   0  0  0  0  0  0  0  0  0  0  0  0
   29.9417  -19.8639   35.0655 C   0  0  0  0  0  0  0  0  0  0  0  0
   29.1829  -23.1146   35.3284 O   0  0  0  0  0  0  0  0  0  0  0  0
   29.0989  -22.0272   35.9528 C   0  0  0  0  0  0  0  0  0  0  0  0
   28.0181  -21.7840   36.7826 O   0  0  0  0  0  0  0  0  0  0  0  0
   27.1474  -21.4652   36.3554 H   0  0  0  0  0  0  0  0  0  0  0  0
   33.1329  -18.1851   35.3959 O   0  0  0  0  0  0  0  0  0  0  0  0
   34.3571  -18.0077   34.9153 C   0  0  0  0  0  0  0  0  0  0  0  0
   35.5597  -18.2852   35.8289 C   0  0  0  0  0  0  0  0  0  0  0  0
   36.5616  -18.0670   34.3234 S   0  0  0  0  0  0  0  0  0  0  0  0
   34.9922  -18.9294   33.9313 C   0  0  0  0  0  0  0  0  0  0  0  0
  7  8  2  0  0  0
  8  9  1  0  0  0
  8  1  1  0  0  0
  1  2  2  0  0  0
  2  3  1  0  0  0
  3  4  2  0  0  0
  4 11  1  0  0  0
 11 12  1  0  0  0
 12 13  1  0  0  0
 13 14  1  0  0  0
 14 15  1  0  0  0
  4  5  1  0  0  0
  5  6  2  0  0  0
  6  1  1  0  0  0
 15 12  1  0  0  0
  9 10  1  0  0  0
M  END
> <minimizedAffinity>
-3.97061

> <CNNscore>
0.6568223238

> <CNNaffinity>
3.1770026684

> <CNN_VS>
2.0867261887

> <CNNaffinity_variance>
0.4244575500

$$$$
[H]OC(=O)c1c([H])c([H])c(OC2([H])C([H])([H])SC2([H])[H])c([H])c1[H]


 15 16  0  0  0  0  0  0  0  0999 V2000
   31.1826  -20.3373   35.5240 C   0  0  0  0  0  0  0  0  0  0  0  0
   32.2749  -20.5947   36.3402 C   0  0  0  0  0  0  0  0  0  0  0  0
   33.5070  -20.0297   36.0304 C   0  0  0  0  0  0  0  0  0  0  0  0
   33.6923  -19.2168   34.9364 C   0  0  0  0  0  0  0  0  0  0  0  0
   32.5919  -18.9667   34.1274 C   0  0  0  0  0  0  0  0  0  0  0  0
   31.3468  -19.5230   34.4193 C   0  0  0  0  0  0  0  0  0  0  0  0
   29.6692  -22.1442   35.5933 O   0  0  0  0  0  0  0  0  0  0  0  0
   29.8849  -20.9333   35.8516 C   0  0  0  0  0  0  0  0  0  0  0  0
   28.8996  -20.1630   36.4444 O   0  0  0  0  0  0  0  0  0  0  0  0
   28.1667  -19.7785   35.8468 H   0  0  0  0  0  0  0  0  0  0  0  0
   34.8604  -18.6741   34.6325 O   0  0  0  0  0  0  0  0  0  0  0  0
   36.0893  -18.9876   34.2420 C   0  0  0  0  0  0  0  0  0  0  0  0
   37.0702  -17.8565   33.9009 C   0  0  0  0  0  0  0  0  0  0  0  0
   38.3242  -19.1747   33.8130 S   0  0  0  0  0  0  0  0  0  0  0  0
   37.1349  -19.5087   35.1674 C   0  0  0  0  0  0  0  0  0  0  0  0
  7  8  2  0  0  0
  8  9  1  0  0  0
  8  1  1  0  0  0
  1  2  2  0  0  0
  2  3  1  0  0  0
  3  4  2  0  0  0
  4 11  1  0  0  0
 11 12  1  0  0  0
 12 13  1  0  0  0
 13 14  1  0  0  0
 14 15  1  0  0  0
  4  5  1  0  0  0
  5  6  2  0  0  0
  6  1  1  0  0  0
 15 12  1  0  0  0
  9 10  1  0  0  0
M  END
> <minimizedAffinity>
-4.02740

> <CNNscore>
0.5784430504

> <CNNaffinity>
3.2335555553

> <CNN_VS>
1.8704277277

> <CNNaffinity_variance>
0.3677588999

$$$$
[H]OC(=O)c1c([H])c([H])c(OC2([H])C([H])([H])SC2([H])[H])c([H])c1[H]


 15 16  0  0  0  0  0  0  0  0999 V2000
   33.0491  -19.2360   34.5386 C   0  0  0  0  0  0  0  0  0  0  0  0
   34.2873  -19.5282   33.9846 C   0  0  0  0  0  0  0  0  0  0  0  0
   35.3569  -18.6693   34.2116 C   0  0  0  0  0  0  0  0  0  0  0  0
   35.2391  -17.5283   34.9708 C   0  0  0  0  0  0  0  0  0  0  0  0
   33.9953  -17.2467   35.5197 C   0  0  0  0  0  0  0  0  0  0  0  0
   32.9088  -18.0943   35.3050 C   0  0  0  0  0  0  0  0  0  0  0  0
   32.1380  -21.3534   34.0424 O   0  0  0  0  0  0  0  0  0  0  0  0
   31.9230  -20.1420   34.2986 C   0  0  0  0  0  0  0  0  0  0  0  0
   30.6256  -19.6631   34.3543 O   0  0  0  0  0  0  0  0  0  0  0  0
   30.1608  -19.4332   33.4750 H   0  0  0  0  0  0  0  0  0  0  0  0
   36.2504  -16.7041   35.1931 O   0  0  0  0  0  0  0  0  0  0  0  0
   36.7328  -15.8605   36.0968 C   0  0  0  0  0  0  0  0  0  0  0  0
   36.1748  -14.4309   36.1489 C   0  0  0  0  0  0  0  0  0  0  0  0
   37.1414  -14.2712   37.6845 S   0  0  0  0  0  0  0  0  0  0  0  0
   36.4203  -15.9512   37.5511 C   0  0  0  0  0  0  0  0  0  0  0  0
  7  8  2  0  0  0
  8  9  1  0  0  0
  8  1  1  0  0  0
  1  2  2  0  0  0
  2  3  1  0  0  0
  3  4  2  0  0  0
  4 11  1  0  0  0
 11 12  1  0  0  0
 12 13  1  0  0  0
 13 14  1  0  0  0
 14 15  1  0  0  0
  4  5  1  0  0  0
  5  6  2  0  0  0
  6  1  1  0  0  0
 15 12  1  0  0  0
  9 10  1  0  0  0
M  END
> <minimizedAffinity>
-4.60135

> <CNNscore>
0.4814647138

> <CNNaffinity>
3.3164258003

> <CNN_VS>
1.5967420340

> <CNNaffinity_variance>
0.4191811681

$$$$
[H]OC(=O)c1c([H])c([H])c(OC2([H])C([H])([H])SC2([H])[H])c([H])c1[H]


 15 16  0  0  0  0  0  0  0  0999 V2000
   31.3367  -21.6645   36.6674 C   0  0  0  0  0  0  0  0  0  0  0  0
   31.1480  -20.5480   35.8653 C   0  0  0  0  0  0  0  0  0  0  0  0
   32.1707  -19.6140   35.7435 C   0  0  0  0  0  0  0  0  0  0  0  0
   33.3762  -19.7505   36.3916 C   0  0  0  0  0  0  0  0  0  0  0  0
   33.5530  -20.8717   37.1912 C   0  0  0  0  0  0  0  0  0  0  0  0
   32.5407  -21.8212   37.3278 C   0  0  0  0  0  0  0  0  0  0  0  0
   30.2845  -23.4881   37.7291 O   0  0  0  0  0  0  0  0  0  0  0  0
   30.2582  -22.6479   36.7948 C   0  0  0  0  0  0  0  0  0  0  0  0
   29.2132  -22.6503   35.8873 O   0  0  0  0  0  0  0  0  0  0  0  0
   29.2465  -23.3215   35.1189 H   0  0  0  0  0  0  0  0  0  0  0  0
   34.3561  -18.8676   36.2826 O   0  0  0  0  0  0  0  0  0  0  0  0
   35.4577  -18.6082   35.5897 C   0  0  0  0  0  0  0  0  0  0  0  0
   35.4452  -18.8228   34.0693 C   0  0  0  0  0  0  0  0  0  0  0  0
   37.0717  -18.0034   34.0921 S   0  0  0  0  0  0  0  0  0  0  0  0
   35.9442  -17.2273   35.3115 C   0  0  0  0  0  0  0  0  0  0  0  0
  7  8  2  0  0  0
  8  9  1  0  0  0
  8  1  1  0  0  0
  1  2  2  0  0  0
  2  3  1  0  0  0
  3  4  2  0  0  0
  4 11  1  0  0  0
 11 12  1  0  0  0
 12 13  1  0  0  0
 13 14  1  0  0  0
 14 15  1  0  0  0
  4  5  1  0  0  0
  5  6  2  0  0  0
  6  1  1  0  0  0
 15 12  1  0  0  0
  9 10  1  0  0  0
M  END
> <minimizedAffinity>
-3.10287

> <CNNscore>
0.4523952901

> <CNNaffinity>
2.9177136421

> <CNN_VS>
1.3199598789

> <CNNaffinity_variance>
0.2698381841

$$$$
[H]OC(=O)c1c([H])c([H])c(OC2([H])C([H])([H])SC2([H])[H])c([H])c1[H]


 15 16  0  0  0  0  0  0  0  0999 V2000
   39.7449  -19.6689   36.0370 C   0  0  0  0  0  0  0  0  0  0  0  0
   39.3781  -21.0066   35.9965 C   0  0  0  0  0  0  0  0  0  0  0  0
   38.0901  -21.3730   36.3710 C   0  0  0  0  0  0  0  0  0  0  0  0
   37.1525  -20.4557   36.7850 C   0  0  0  0  0  0  0  0  0  0  0  0
   37.5316  -19.1205   36.8212 C   0  0  0  0  0  0  0  0  0  0  0  0
   38.8181  -18.7305   36.4500 C   0  0  0  0  0  0  0  0  0  0  0  0
   42.0731  -20.0274   35.9332 O   0  0  0  0  0  0  0  0  0  0  0  0
   41.1024  -19.2843   35.6421 C   0  0  0  0  0  0  0  0  0  0  0  0
   41.3135  -18.1044   34.9498 O   0  0  0  0  0  0  0  0  0  0  0  0
   41.6231  -17.2873   35.4776 H   0  0  0  0  0  0  0  0  0  0  0  0
   35.9242  -20.7936   37.1435 O   0  0  0  0  0  0  0  0  0  0  0  0
   35.2270  -21.2676   38.1683 C   0  0  0  0  0  0  0  0  0  0  0  0
   35.1389  -20.4334   39.4544 C   0  0  0  0  0  0  0  0  0  0  0  0
   33.9018  -21.6601   39.9859 S   0  0  0  0  0  0  0  0  0  0  0  0
   33.7377  -21.3176   38.1925 C   0  0  0  0  0  0  0  0  0  0  0  0
  7  8  2  0  0  0
  8  9  1  0  0  0
  8  1  1  0  0  0
  1  2  2  0  0  0
  2  3  1  0  0  0
  3  4  2  0  0  0
  4 11  1  0  0  0
 11 12  1  0  0  0
 12 13  1  0  0  0
 13 14  1  0  0  0
 14 15  1  0  0  0
  4  5  1  0  0  0
  5  6  2  0  0  0
  6  1  1  0  0  0
 15 12  1  0  0  0
  9 10  1  0  0  0
M  END
> <minimizedAffinity>
-2.64241

> <CNNscore>
0.4189835787

> <CNNaffinity>
2.9227461815

> <CNN_VS>
1.2245826721

> <CNNaffinity_variance>
0.1997443736

$$$$
[H]OC(=O)c1c([H])c([H])c(OC2([H])C([H])([H])SC2([H])[H])c([H])c1[H]


 15 16  0  0  0  0  0  0  0  0999 V2000
   39.3590  -18.8945   35.2202 C   0  0  0  0  0  0  0  0  0  0  0  0
   38.7032  -18.8354   33.9987 C   0  0  0  0  0  0  0  0  0  0  0  0
   37.3191  -18.7063   33.9723 C   0  0  0  0  0  0  0  0  0  0  0  0
   36.5624  -18.6339   35.1187 C   0  0  0  0  0  0  0  0  0  0  0  0
   37.2299  -18.6941   36.3346 C   0  0  0  0  0  0  0  0  0  0  0  0
   38.6177  -18.8235   36.3845 C   0  0  0  0  0  0  0  0  0  0  0  0
   41.3506  -20.1197   34.9162 O   0  0  0  0  0  0  0  0  0  0  0  0
   40.8175  -19.0306   35.2465 C   0  0  0  0  0  0  0  0  0  0  0  0
   41.6053  -17.9608   35.6346 O   0  0  0  0  0  0  0  0  0  0  0  0
   41.9504  -17.9427   36.5952 H   0  0  0  0  0  0  0  0  0  0  0  0
   35.2448  -18.5110   35.1049 O   0  0  0  0  0  0  0  0  0  0  0  0
   34.1554  -18.9941   34.5210 C   0  0  0  0  0  0  0  0  0  0  0  0
   33.3692  -20.1093   35.2253 C   0  0  0  0  0  0  0  0  0  0  0  0
   32.1179  -19.8384   33.9297 S   0  0  0  0  0  0  0  0  0  0  0  0
   32.8690  -18.2460   34.4405 C   0  0  0  0  0  0  0  0  0  0  0  0
  7  8  2  0  0  0
  8  9  1  0  0  0
  8  1  1  0  0  0
  1  2  2  0  0  0
  2  3  1  0  0  0
  3  4  2  0  0  0
  4 11  1  0  0  0
 11 12  1  0  0  0
 12 13  1  0  0  0
 13 14  1  0  0  0
 14 15  1  0  0  0
  4  5  1  0  0  0
  5  6  2  0  0  0
  6  1  1  0  0  0
 15 12  1  0  0  0
  9 10  1  0  0  0
M  END
> <minimizedAffinity>
-3.83340

> <CNNscore>
0.4173646867

> <CNNaffinity>
3.1978850365

> <CNN_VS>
1.3346842527

> <CNNaffinity_variance>
0.3485381007

$$$$
[H]OC(=O)c1c([H])c([H])c(OC2([H])C([H])([H])SC2([H])[H])c([H])c1[H]


 15 16  0  0  0  0  0  0  0  0999 V2000
   34.4644  -20.2115   36.6441 C   0  0  0  0  0  0  0  0  0  0  0  0
   35.5904  -20.8496   37.1445 C   0  0  0  0  0  0  0  0  0  0  0  0
   36.8430  -20.5212   36.6382 C   0  0  0  0  0  0  0  0  0  0  0  0
   37.0164  -19.5798   35.6505 C   0  0  0  0  0  0  0  0  0  0  0  0
   35.8823  -18.9483   35.1579 C   0  0  0  0  0  0  0  0  0  0  0  0
   34.6161  -19.2621   35.6511 C   0  0  0  0  0  0  0  0  0  0  0  0
   33.0515  -21.1177   38.3001 O   0  0  0  0  0  0  0  0  0  0  0  0
   33.1451  -20.5584   37.1785 C   0  0  0  0  0  0  0  0  0  0  0  0
   32.0051  -20.2702   36.4484 O   0  0  0  0  0  0  0  0  0  0  0  0
   31.5825  -21.0218   35.9020 H   0  0  0  0  0  0  0  0  0  0  0  0
   38.2038  -19.2598   35.1616 O   0  0  0  0  0  0  0  0  0  0  0  0
   39.0781  -19.6083   34.2261 C   0  0  0  0  0  0  0  0  0  0  0  0
   40.4484  -18.9161   34.1970 C   0  0  0  0  0  0  0  0  0  0  0  0
   40.8827  -20.1619   32.9411 S   0  0  0  0  0  0  0  0  0  0  0  0
   39.8195  -20.9012   34.2387 C   0  0  0  0  0  0  0  0  0  0  0  0
  7  8  2  0  0  0
  8  9  1  0  0  0
  8  1  1  0  0  0
  1  2  2  0  0  0
  2  3  1  0  0  0
  3  4  2  0  0  0
  4 11  1  0  0  0
 11 12  1  0  0  0
 12 13  1  0  0  0
 13 14  1  0  0  0
 14 15  1  0  0  0
  4  5  1  0  0  0
  5  6  2  0  0  0
  6  1  1  0  0  0
 15 12  1  0  0  0
  9 10  1  0  0  0
M  END
> <minimizedAffinity>
-3.03146

> <CNNscore>
0.4088812768

> <CNNaffinity>
2.9736394882

> <CNN_VS>
1.2158654928

> <CNNaffinity_variance>
0.3202713430

$$$$
[H]OC(=O)c1c([H])c([H])c(OC2([H])C([H])([H])SC2([H])[H])c([H])c1[H]


 15 16  0  0  0  0  0  0  0  0999 V2000
   36.3450  -16.4907   36.5561 C   0  0  0  0  0  0  0  0  0  0  0  0
   36.9739  -15.6436   37.4574 C   0  0  0  0  0  0  0  0  0  0  0  0
   36.3385  -14.4707   37.8497 C   0  0  0  0  0  0  0  0  0  0  0  0
   35.0984  -14.1092   37.3769 C   0  0  0  0  0  0  0  0  0  0  0  0
   34.4794  -14.9649   36.4756 C   0  0  0  0  0  0  0  0  0  0  0  0
   35.0984  -16.1465   36.0685 C   0  0  0  0  0  0  0  0  0  0  0  0
   36.9672  -18.7414   36.8830 O   0  0  0  0  0  0  0  0  0  0  0  0
   37.0157  -17.7263   36.1437 C   0  0  0  0  0  0  0  0  0  0  0  0
   37.7009  -17.7738   34.9421 O   0  0  0  0  0  0  0  0  0  0  0  0
   38.7147  -17.6563   34.9629 H   0  0  0  0  0  0  0  0  0  0  0  0
   34.4849  -12.9955   37.7435 O   0  0  0  0  0  0  0  0  0  0  0  0
   33.2806  -12.4447   37.8303 C   0  0  0  0  0  0  0  0  0  0  0  0
   32.2890  -12.6444   36.6750 C   0  0  0  0  0  0  0  0  0  0  0  0
   31.0702  -11.8737   37.7878 S   0  0  0  0  0  0  0  0  0  0  0  0
   32.2099  -12.9545   38.7330 C   0  0  0  0  0  0  0  0  0  0  0  0
  7  8  2  0  0  0
  8  9  1  0  0  0
  8  1  1  0  0  0
  1  2  2  0  0  0
  2  3  1  0  0  0
  3  4  2  0  0  0
  4 11  1  0  0  0
 11 12  1  0  0  0
 12 13  1  0  0  0
 13 14  1  0  0  0
 14 15  1  0  0  0
  4  5  1  0  0  0
  5  6  2  0  0  0
  6  1  1  0  0  0
 15 12  1  0  0  0
  9 10  1  0  0  0
M  END
> <minimizedAffinity>
-5.63493

> <CNNscore>
0.3679952621

> <CNNaffinity>
3.2972099781

> <CNN_VS>
1.2133576870

> <CNNaffinity_variance>
0.6582235098

$$$$
[H]OC(=O)c1c([H])c([H])c(OC2([H])C([H])([H])SC2([H])[H])c([H])c1[H]


 15 16  0  0  0  0  0  0  0  0999 V2000
   32.3959  -21.3225   35.1264 C   0  0  0  0  0  0  0  0  0  0  0  0
   32.3860  -20.4853   34.0198 C   0  0  0  0  0  0  0  0  0  0  0  0
   32.9342  -19.2116   34.1223 C   0  0  0  0  0  0  0  0  0  0  0  0
   33.4927  -18.7398   35.2874 C   0  0  0  0  0  0  0  0  0  0  0  0
   33.4967  -19.5867   36.3875 C   0  0  0  0  0  0  0  0  0  0  0  0
   32.9523  -20.8682   36.3072 C   0  0  0  0  0  0  0  0  0  0  0  0
   31.6878  -23.1995   33.8874 O   0  0  0  0  0  0  0  0  0  0  0  0
   31.8179  -22.6643   35.0170 C   0  0  0  0  0  0  0  0  0  0  0  0
   31.4165  -23.3398   36.1564 O   0  0  0  0  0  0  0  0  0  0  0  0
   30.4251  -23.3246   36.3990 H   0  0  0  0  0  0  0  0  0  0  0  0
   34.0170  -17.5295   35.3957 O   0  0  0  0  0  0  0  0  0  0  0  0
   34.8759  -16.8228   36.1197 C   0  0  0  0  0  0  0  0  0  0  0  0
   36.3291  -16.7033   35.6383 C   0  0  0  0  0  0  0  0  0  0  0  0
   36.5105  -15.4749   36.9709 S   0  0  0  0  0  0  0  0  0  0  0  0
   34.8589  -15.3342   36.1880 C   0  0  0  0  0  0  0  0  0  0  0  0
  7  8  2  0  0  0
  8  9  1  0  0  0
  8  1  1  0  0  0
  1  2  2  0  0  0
  2  3  1  0  0  0
  3  4  2  0  0  0
  4 11  1  0  0  0
 11 12  1  0  0  0
 12 13  1  0  0  0
 13 14  1  0  0  0
 14 15  1  0  0  0
  4  5  1  0  0  0
  5  6  2  0  0  0
  6  1  1  0  0  0
 15 12  1  0  0  0
  9 10  1  0  0  0
M  END
> <minimizedAffinity>
-3.76339

> <CNNscore>
0.3631249070

> <CNNaffinity>
2.9876704216

> <CNN_VS>
1.0848975182

> <CNNaffinity_variance>
0.4086469114

$$$$
[H]C([H])=C([H])C(=O)N([H])C([H])([H])C([H])([H])C([H])([H])C([H])([H])[C@@]([H])(C(=O)N1C([H])([H])C([H])([H])N(c2c([H])c([H])c([H])c(C([H])([H])[H])c2[H])C([H])([H])C1([H])[H])N([H])C(=O)C([H])([H])c1c([H])c([H])c([H])c([H])c1[H]


 37 39  0  0  0  0  0  0  0  0999 V2000
   33.6305  -18.1615   34.8644 C   0  0  0  0  0  0  0  0  0  0  0  0
   34.5596  -18.6883   35.8764 C   0  0  0  0  0  0  0  0  0  0  0  0
   34.0799  -18.9879   37.0267 O   0  0  0  0  0  0  0  0  0  0  0  0
   35.9366  -18.8828   35.6510 N   0  0  0  0  0  0  0  0  0  0  0  0
   36.5556  -18.6000   34.3890 C   0  0  0  0  0  0  0  0  0  0  0  0
   37.6659  -19.6189   34.1549 C   0  0  0  0  0  0  0  0  0  0  0  0
   38.6369  -19.4387   35.2174 N   0  0  0  0  0  0  0  0  0  0  0  0
   38.2103  -18.8668   36.4588 C   0  0  0  0  0  0  0  0  0  0  0  0
   36.7982  -19.3945   36.7123 C   0  0  0  0  0  0  0  0  0  0  0  0
   39.9875  -19.8318   35.0321 C   0  0  0  0  0  0  0  0  0  0  0  0
   40.9719  -19.1333   35.7255 C   0  0  0  0  0  0  0  0  0  0  0  0
   42.2850  -19.4969   35.5680 C   0  0  0  0  0  0  0  0  0  0  0  0
   42.6571  -20.5280   34.7480 C   0  0  0  0  0  0  0  0  0  0  0  0
   41.7051  -21.2338   34.0521 C   0  0  0  0  0  0  0  0  0  0  0  0
   42.0664  -22.3470   33.1597 C   0  0  0  0  0  0  0  0  0  0  0  0
   40.3808  -20.8635   34.2143 C   0  0  0  0  0  0  0  0  0  0  0  0
   32.2323  -18.3924   35.3037 N   0  0  0  0  0  0  0  0  0  0  0  0
   31.4063  -19.3004   34.6172 C   0  0  0  0  0  0  0  0  0  0  0  0
   31.8673  -19.9157   33.6243 O   0  0  0  0  0  0  0  0  0  0  0  0
   31.9041  -17.8703   36.1137 H   0  0  0  0  0  0  0  0  0  0  0  0
   30.0278  -19.5131   35.0702 C   0  0  0  0  0  0  0  0  0  0  0  0
   29.8046  -20.8190   35.6931 C   0  0  0  0  0  0  0  0  0  0  0  0
   30.7655  -21.2792   36.5803 C   0  0  0  0  0  0  0  0  0  0  0  0
   30.6398  -22.5011   37.2135 C   0  0  0  0  0  0  0  0  0  0  0  0
   29.5537  -23.3055   36.9851 C   0  0  0  0  0  0  0  0  0  0  0  0
   28.5911  -22.8649   36.1085 C   0  0  0  0  0  0  0  0  0  0  0  0
   28.7205  -21.6339   35.4723 C   0  0  0  0  0  0  0  0  0  0  0  0
   33.7056  -16.6453   34.7357 C   0  0  0  0  0  0  0  0  0  0  0  0
   34.0344  -15.9427   36.0107 C   0  0  0  0  0  0  0  0  0  0  0  0
   33.6581  -14.4689   36.0122 C   0  0  0  0  0  0  0  0  0  0  0  0
   34.6659  -13.6430   36.7335 C   0  0  0  0  0  0  0  0  0  0  0  0
   33.5089  -11.7134   37.7897 C   0  0  0  0  0  0  0  0  0  0  0  0
   33.1163  -12.4555   38.7620 O   0  0  0  0  0  0  0  0  0  0  0  0
   34.2911  -12.2466   36.7465 N   0  0  0  0  0  0  0  0  0  0  0  0
   34.6231  -11.6359   35.9461 H   0  0  0  0  0  0  0  0  0  0  0  0
   33.8124   -9.3846   37.2116 C   0  0  0  0  0  0  0  0  0  0  0  0
   33.1219  -10.3302   37.8079 C   0  0  0  0  0  0  0  0  0  0  0  0
 36 37  2  0  0  0
 37 32  1  0  0  0
 32 33  2  0  0  0
 32 34  1  0  0  0
 34 31  1  0  0  0
 31 30  1  0  0  0
 30 29  1  0  0  0
 29 28  1  0  0  0
 28  1  1  0  0  0
  1 17  1  0  0  0
 17 18  1  0  0  0
 18 19  2  0  0  0
 18 21  1  0  0  0
 21 22  1  0  0  0
 22 23  2  0  0  0
 23 24  1  0  0  0
 24 25  2  0  0  0
 25 26  1  0  0  0
 26 27  2  0  0  0
  1  2  1  0  0  0
  2  3  2  0  0  0
  2  4  1  0  0  0
  4  5  1  0  0  0
  5  6  1  0  0  0
  6  7  1  0  0  0
  7 10  1  0  0  0
 10 11  2  0  0  0
 11 12  1  0  0  0
 12 13  2  0  0  0
 13 14  1  0  0  0
 14 15  1  0  0  0
 14 16  2  0  0  0
  7  8  1  0  0  0
  8  9  1  0  0  0
 27 22  1  0  0  0
  9  4  1  0  0  0
 16 10  1  0  0  0
 34 35  1  0  0  0
 17 20  1  0  0  0
M  END
> <minimizedAffinity>
-7.31741

> <CNNscore>
0.4135575294

> <CNNaffinity>
6.0271334648

> <CNN_VS>
2.4925663471

> <CNNaffinity_variance>
0.1387947798

$$$$
[H]C([H])=C([H])C(=O)N([H])C([H])([H])C([H])([H])C([H])([H])C([H])([H])[C@@]([H])(C(=O)N1C([H])([H])C([H])([H])N(c2c([H])c([H])c([H])c(C([H])([H])[H])c2[H])C([H])([H])C1([H])[H])N([H])C(=O)C([H])([H])c1c([H])c([H])c([H])c([H])c1[H]


 37 39  0  0  0  0  0  0  0  0999 V2000
   37.0742  -21.3505   37.7622 C   0  0  0  0  0  0  0  0  0  0  0  0
   36.2582  -22.5483   37.5086 C   0  0  0  0  0  0  0  0  0  0  0  0
   36.8360  -23.6898   37.5867 O   0  0  0  0  0  0  0  0  0  0  0  0
   34.8864  -22.5095   37.1901 N   0  0  0  0  0  0  0  0  0  0  0  0
   34.1520  -21.2810   37.1062 C   0  0  0  0  0  0  0  0  0  0  0  0
   32.7320  -21.5306   37.6035 C   0  0  0  0  0  0  0  0  0  0  0  0
   32.1369  -22.5080   36.7120 N   0  0  0  0  0  0  0  0  0  0  0  0
   32.9916  -23.4046   35.9939 C   0  0  0  0  0  0  0  0  0  0  0  0
   34.1479  -23.7424   36.9350 C   0  0  0  0  0  0  0  0  0  0  0  0
   30.7280  -22.5802   36.5611 C   0  0  0  0  0  0  0  0  0  0  0  0
   30.2070  -23.6052   35.7765 C   0  0  0  0  0  0  0  0  0  0  0  0
   28.8478  -23.7006   35.6188 C   0  0  0  0  0  0  0  0  0  0  0  0
   27.9868  -22.8164   36.2111 C   0  0  0  0  0  0  0  0  0  0  0  0
   28.4752  -21.7953   36.9907 C   0  0  0  0  0  0  0  0  0  0  0  0
   27.5813  -20.8242   37.6420 C   0  0  0  0  0  0  0  0  0  0  0  0
   29.8478  -21.7031   37.1473 C   0  0  0  0  0  0  0  0  0  0  0  0
   38.2604  -21.7185   38.5738 N   0  0  0  0  0  0  0  0  0  0  0  0
   38.2524  -21.5526   39.9705 C   0  0  0  0  0  0  0  0  0  0  0  0
   37.2262  -21.0875   40.5248 O   0  0  0  0  0  0  0  0  0  0  0  0
   39.0684  -22.0915   38.0792 H   0  0  0  0  0  0  0  0  0  0  0  0
   39.4362  -21.9242   40.7523 C   0  0  0  0  0  0  0  0  0  0  0  0
   40.4665  -20.8852   40.7958 C   0  0  0  0  0  0  0  0  0  0  0  0
   40.7333  -20.2973   42.0229 C   0  0  0  0  0  0  0  0  0  0  0  0
   41.6874  -19.3069   42.1587 C   0  0  0  0  0  0  0  0  0  0  0  0
   42.4080  -18.8687   41.0781 C   0  0  0  0  0  0  0  0  0  0  0  0
   42.1567  -19.4407   39.8538 C   0  0  0  0  0  0  0  0  0  0  0  0
   41.1952  -20.4378   39.7202 C   0  0  0  0  0  0  0  0  0  0  0  0
   37.6898  -20.7830   36.4894 C   0  0  0  0  0  0  0  0  0  0  0  0
   39.1695  -20.6006   36.5591 C   0  0  0  0  0  0  0  0  0  0  0  0
   39.6119  -19.1477   36.4750 C   0  0  0  0  0  0  0  0  0  0  0  0
   40.6309  -18.9421   35.4085 C   0  0  0  0  0  0  0  0  0  0  0  0
   42.8761  -18.4406   36.3493 C   0  0  0  0  0  0  0  0  0  0  0  0
   43.1301  -19.6946   36.4640 O   0  0  0  0  0  0  0  0  0  0  0  0
   41.6458  -17.9996   35.8238 N   0  0  0  0  0  0  0  0  0  0  0  0
   41.4351  -16.9658   35.7209 H   0  0  0  0  0  0  0  0  0  0  0  0
   43.6484  -16.2390   36.9869 C   0  0  0  0  0  0  0  0  0  0  0  0
   43.8875  -17.5135   36.7746 C   0  0  0  0  0  0  0  0  0  0  0  0
 36 37  2  0  0  0
 37 32  1  0  0  0
 32 33  2  0  0  0
 32 34  1  0  0  0
 34 31  1  0  0  0
 31 30  1  0  0  0
 30 29  1  0  0  0
 29 28  1  0  0  0
 28  1  1  0  0  0
  1 17  1  0  0  0
 17 18  1  0  0  0
 18 19  2  0  0  0
 18 21  1  0  0  0
 21 22  1  0  0  0
 22 23  2  0  0  0
 23 24  1  0  0  0
 24 25  2  0  0  0
 25 26  1  0  0  0
 26 27  2  0  0  0
  1  2  1  0  0  0
  2  3  2  0  0  0
  2  4  1  0  0  0
  4  5  1  0  0  0
  5  6  1  0  0  0
  6  7  1  0  0  0
  7 10  1  0  0  0
 10 11  2  0  0  0
 11 12  1  0  0  0
 12 13  2  0  0  0
 13 14  1  0  0  0
 14 15  1  0  0  0
 14 16  2  0  0  0
  7  8  1  0  0  0
  8  9  1  0  0  0
 27 22  1  0  0  0
  9  4  1  0  0  0
 16 10  1  0  0  0
 34 35  1  0  0  0
 17 20  1  0  0  0
M  END
> <minimizedAffinity>
-4.98695

> <CNNscore>
0.3863370419

> <CNNaffinity>
4.7156128883

> <CNN_VS>
1.8218159676

> <CNNaffinity_variance>
0.2941465676

$$$$
[H]C([H])=C([H])C(=O)N([H])C([H])([H])C([H])([H])C([H])([H])C([H])([H])[C@@]([H])(C(=O)N1C([H])([H])C([H])([H])N(c2c([H])c([H])c([H])c(C([H])([H])[H])c2[H])C([H])([H])C1([H])[H])N([H])C(=O)C([H])([H])c1c([H])c([H])c([H])c([H])c1[H]


 37 39  0  0  0  0  0  0  0  0999 V2000
   36.0808  -17.6958   34.7523 C   0  0  0  0  0  0  0  0  0  0  0  0
   35.6954  -18.7456   35.7085 C   0  0  0  0  0  0  0  0  0  0  0  0
   36.4840  -18.9728   36.6930 O   0  0  0  0  0  0  0  0  0  0  0  0
   34.5145  -19.5066   35.6035 N   0  0  0  0  0  0  0  0  0  0  0  0
   33.5618  -19.3047   34.5513 C   0  0  0  0  0  0  0  0  0  0  0  0
   32.1641  -19.5517   35.1093 C   0  0  0  0  0  0  0  0  0  0  0  0
   32.1186  -20.9363   35.5396 N   0  0  0  0  0  0  0  0  0  0  0  0
   33.3399  -21.5944   35.8935 C   0  0  0  0  0  0  0  0  0  0  0  0
   34.2097  -20.5439   36.5841 C   0  0  0  0  0  0  0  0  0  0  0  0
   30.8807  -21.6252   35.6171 C   0  0  0  0  0  0  0  0  0  0  0  0
   29.7592  -20.9088   36.0253 C   0  0  0  0  0  0  0  0  0  0  0  0
   28.5492  -21.5501   36.1034 C   0  0  0  0  0  0  0  0  0  0  0  0
   28.4114  -22.8758   35.7915 C   0  0  0  0  0  0  0  0  0  0  0  0
   29.5028  -23.6060   35.3859 C   0  0  0  0  0  0  0  0  0  0  0  0
   29.3944  -25.0335   35.0441 C   0  0  0  0  0  0  0  0  0  0  0  0
   30.7220  -22.9546   35.3081 C   0  0  0  0  0  0  0  0  0  0  0  0
   36.6067  -16.5200   35.4886 N   0  0  0  0  0  0  0  0  0  0  0  0
   35.7356  -15.5209   35.9590 C   0  0  0  0  0  0  0  0  0  0  0  0
   34.5031  -15.6357   35.7478 O   0  0  0  0  0  0  0  0  0  0  0  0
   37.6130  -16.4714   35.6351 H   0  0  0  0  0  0  0  0  0  0  0  0
   36.2782  -14.3681   36.6852 C   0  0  0  0  0  0  0  0  0  0  0  0
   35.2801  -13.3452   37.0019 C   0  0  0  0  0  0  0  0  0  0  0  0
   34.2505  -13.6977   37.8610 C   0  0  0  0  0  0  0  0  0  0  0  0
   33.2626  -12.7982   38.2142 C   0  0  0  0  0  0  0  0  0  0  0  0
   33.2665  -11.5179   37.7244 C   0  0  0  0  0  0  0  0  0  0  0  0
   34.2800  -11.1512   36.8715 C   0  0  0  0  0  0  0  0  0  0  0  0
   35.2734  -12.0593   36.5176 C   0  0  0  0  0  0  0  0  0  0  0  0
   37.2565  -18.1076   33.8753 C   0  0  0  0  0  0  0  0  0  0  0  0
   38.3711  -18.7624   34.6214 C   0  0  0  0  0  0  0  0  0  0  0  0
   38.9075  -20.0150   33.9455 C   0  0  0  0  0  0  0  0  0  0  0  0
   38.6162  -21.2394   34.7418 C   0  0  0  0  0  0  0  0  0  0  0  0
   39.9478  -23.2925   34.3071 C   0  0  0  0  0  0  0  0  0  0  0  0
   40.7161  -23.0288   35.3022 O   0  0  0  0  0  0  0  0  0  0  0  0
   38.8763  -22.4392   33.9781 N   0  0  0  0  0  0  0  0  0  0  0  0
   38.2356  -22.6570   33.1621 H   0  0  0  0  0  0  0  0  0  0  0  0
   41.0278  -24.5006   32.5116 C   0  0  0  0  0  0  0  0  0  0  0  0
   40.2220  -24.4816   33.5494 C   0  0  0  0  0  0  0  0  0  0  0  0
 36 37  2  0  0  0
 37 32  1  0  0  0
 32 33  2  0  0  0
 32 34  1  0  0  0
 34 31  1  0  0  0
 31 30  1  0  0  0
 30 29  1  0  0  0
 29 28  1  0  0  0
 28  1  1  0  0  0
  1 17  1  0  0  0
 17 18  1  0  0  0
 18 19  2  0  0  0
 18 21  1  0  0  0
 21 22  1  0  0  0
 22 23  2  0  0  0
 23 24  1  0  0  0
 24 25  2  0  0  0
 25 26  1  0  0  0
 26 27  2  0  0  0
  1  2  1  0  0  0
  2  3  2  0  0  0
  2  4  1  0  0  0
  4  5  1  0  0  0
  5  6  1  0  0  0
  6  7  1  0  0  0
  7 10  1  0  0  0
 10 11  2  0  0  0
 11 12  1  0  0  0
 12 13  2  0  0  0
 13 14  1  0  0  0
 14 15  1  0  0  0
 14 16  2  0  0  0
  7  8  1  0  0  0
  8  9  1  0  0  0
 27 22  1  0  0  0
  9  4  1  0  0  0
 16 10  1  0  0  0
 34 35  1  0  0  0
 17 20  1  0  0  0
M  END
> <minimizedAffinity>
-7.18318

> <CNNscore>
0.3392491043

> <CNNaffinity>
5.7506480217

> <CNN_VS>
1.9509022236

> <CNNaffinity_variance>
0.1592445076

$$$$
[H]C([H])=C([H])C(=O)N([H])C([H])([H])C([H])([H])C([H])([H])C([H])([H])[C@@]([H])(C(=O)N1C([H])([H])C([H])([H])N(c2c([H])c([H])c([H])c(C([H])([H])[H])c2[H])C([H])([H])C1([H])[H])N([H])C(=O)C([H])([H])c1c([H])c([H])c([H])c([H])c1[H]


 37 39  0  0  0  0  0  0  0  0999 V2000
   36.8154  -17.7218   36.3863 C   0  0  0  0  0  0  0  0  0  0  0  0
   35.9736  -18.1039   35.2417 C   0  0  0  0  0  0  0  0  0  0  0  0
   36.3856  -17.7913   34.0689 O   0  0  0  0  0  0  0  0  0  0  0  0
   34.7502  -18.7920   35.3632 N   0  0  0  0  0  0  0  0  0  0  0  0
   34.2238  -19.2043   36.6315 C   0  0  0  0  0  0  0  0  0  0  0  0
   33.4974  -20.5324   36.4457 C   0  0  0  0  0  0  0  0  0  0  0  0
   32.4017  -20.2907   35.5263 N   0  0  0  0  0  0  0  0  0  0  0  0
   32.4961  -19.1992   34.6045 C   0  0  0  0  0  0  0  0  0  0  0  0
   33.9624  -19.1213   34.1794 C   0  0  0  0  0  0  0  0  0  0  0  0
   31.2574  -21.1294   35.5345 C   0  0  0  0  0  0  0  0  0  0  0  0
   30.0197  -20.5430   35.7835 C   0  0  0  0  0  0  0  0  0  0  0  0
   28.8970  -21.3308   35.7917 C   0  0  0  0  0  0  0  0  0  0  0  0
   28.9572  -22.6789   35.5618 C   0  0  0  0  0  0  0  0  0  0  0  0
   30.1666  -23.2828   35.3134 C   0  0  0  0  0  0  0  0  0  0  0  0
   30.2716  -24.7295   35.0639 C   0  0  0  0  0  0  0  0  0  0  0  0
   31.2972  -22.4837   35.3058 C   0  0  0  0  0  0  0  0  0  0  0  0
   38.2376  -18.0098   36.0768 N   0  0  0  0  0  0  0  0  0  0  0  0
   38.8118  -19.2443   36.4296 C   0  0  0  0  0  0  0  0  0  0  0  0
   38.1046  -20.1032   37.0118 O   0  0  0  0  0  0  0  0  0  0  0  0
   38.7701  -17.2823   35.6039 H   0  0  0  0  0  0  0  0  0  0  0  0
   40.2194  -19.5069   36.1126 C   0  0  0  0  0  0  0  0  0  0  0  0
   41.1356  -19.2401   37.2227 C   0  0  0  0  0  0  0  0  0  0  0  0
   42.1908  -18.3716   36.9890 C   0  0  0  0  0  0  0  0  0  0  0  0
   43.1064  -18.0628   37.9770 C   0  0  0  0  0  0  0  0  0  0  0  0
   43.0023  -18.6078   39.2304 C   0  0  0  0  0  0  0  0  0  0  0  0
   41.9621  -19.4709   39.4798 C   0  0  0  0  0  0  0  0  0  0  0  0
   41.0416  -19.7800   38.4828 C   0  0  0  0  0  0  0  0  0  0  0  0
   36.8143  -16.2190   36.6362 C   0  0  0  0  0  0  0  0  0  0  0  0
   35.4512  -15.6145   36.6995 C   0  0  0  0  0  0  0  0  0  0  0  0
   35.3577  -14.2450   36.0440 C   0  0  0  0  0  0  0  0  0  0  0  0
   34.9337  -13.1971   37.0136 C   0  0  0  0  0  0  0  0  0  0  0  0
   32.6466  -12.5630   37.7518 C   0  0  0  0  0  0  0  0  0  0  0  0
   32.9456  -12.8287   38.9726 O   0  0  0  0  0  0  0  0  0  0  0  0
   33.5987  -12.7220   36.7258 N   0  0  0  0  0  0  0  0  0  0  0  0
   33.3582  -12.4971   35.7181 H   0  0  0  0  0  0  0  0  0  0  0  0
   31.0152  -10.8331   37.3096 C   0  0  0  0  0  0  0  0  0  0  0  0
   31.3145  -12.1016   37.4765 C   0  0  0  0  0  0  0  0  0  0  0  0
 36 37  2  0  0  0
 37 32  1  0  0  0
 32 33  2  0  0  0
 32 34  1  0  0  0
 34 31  1  0  0  0
 31 30  1  0  0  0
 30 29  1  0  0  0
 29 28  1  0  0  0
 28  1  1  0  0  0
  1 17  1  0  0  0
 17 18  1  0  0  0
 18 19  2  0  0  0
 18 21  1  0  0  0
 21 22  1  0  0  0
 22 23  2  0  0  0
 23 24  1  0  0  0
 24 25  2  0  0  0
 25 26  1  0  0  0
 26 27  2  0  0  0
  1  2  1  0  0  0
  2  3  2  0  0  0
  2  4  1  0  0  0
  4  5  1  0  0  0
  5  6  1  0  0  0
  6  7  1  0  0  0
  7 10  1  0  0  0
 10 11  2  0  0  0
 11 12  1  0  0  0
 12 13  2  0  0  0
 13 14  1  0  0  0
 14 15  1  0  0  0
 14 16  2  0  0  0
  7  8  1  0  0  0
  8  9  1  0  0  0
 27 22  1  0  0  0
  9  4  1  0  0  0
 16 10  1  0  0  0
 34 35  1  0  0  0
 17 20  1  0  0  0
M  END
> <minimizedAffinity>
-7.78345

> <CNNscore>
0.3272832930

> <CNNaffinity>
5.9553437233

> <CNN_VS>
1.9490845203

> <CNNaffinity_variance>
0.4299444556

$$$$
[H]C([H])=C([H])C(=O)N([H])C([H])([H])C([H])([H])C([H])([H])C([H])([H])[C@@]([H])(C(=O)N1C([H])([H])C([H])([H])N(c2c([H])c([H])c([H])c(C([H])([H])[H])c2[H])C([H])([H])C1([H])[H])N([H])C(=O)C([H])([H])c1c([H])c([H])c([H])c([H])c1[H]


 37 39  0  0  0  0  0  0  0  0999 V2000
   35.9394  -17.6039   35.0646 C   0  0  0  0  0  0  0  0  0  0  0  0
   35.4285  -18.5000   36.1139 C   0  0  0  0  0  0  0  0  0  0  0  0
   36.0272  -18.4919   37.2473 O   0  0  0  0  0  0  0  0  0  0  0  0
   34.3239  -19.3575   35.9433 N   0  0  0  0  0  0  0  0  0  0  0  0
   33.5781  -19.4150   34.7201 C   0  0  0  0  0  0  0  0  0  0  0  0
   32.1129  -19.6704   35.0577 C   0  0  0  0  0  0  0  0  0  0  0  0
   32.0495  -20.9593   35.7201 N   0  0  0  0  0  0  0  0  0  0  0  0
   33.2107  -21.4493   36.3995 C   0  0  0  0  0  0  0  0  0  0  0  0
   33.8869  -20.2309   37.0281 C   0  0  0  0  0  0  0  0  0  0  0  0
   30.8514  -21.7190   35.7025 C   0  0  0  0  0  0  0  0  0  0  0  0
   29.6712  -21.0861   36.0825 C   0  0  0  0  0  0  0  0  0  0  0  0
   28.4982  -21.7968   36.0691 C   0  0  0  0  0  0  0  0  0  0  0  0
   28.4531  -23.1121   35.6926 C   0  0  0  0  0  0  0  0  0  0  0  0
   29.6039  -23.7606   35.3131 C   0  0  0  0  0  0  0  0  0  0  0  0
   29.5957  -25.1744   34.9039 C   0  0  0  0  0  0  0  0  0  0  0  0
   30.7856  -23.0393   35.3278 C   0  0  0  0  0  0  0  0  0  0  0  0
   36.4931  -16.3752   35.6850 N   0  0  0  0  0  0  0  0  0  0  0  0
   35.6701  -15.2602   35.9246 C   0  0  0  0  0  0  0  0  0  0  0  0
   34.4567  -15.3164   35.6062 O   0  0  0  0  0  0  0  0  0  0  0  0
   37.4824  -16.3775   35.9256 H   0  0  0  0  0  0  0  0  0  0  0  0
   36.2393  -14.0568   36.5399 C   0  0  0  0  0  0  0  0  0  0  0  0
   35.2387  -13.0622   36.9306 C   0  0  0  0  0  0  0  0  0  0  0  0
   34.2416  -13.4650   37.8058 C   0  0  0  0  0  0  0  0  0  0  0  0
   33.2541  -12.5951   38.2274 C   0  0  0  0  0  0  0  0  0  0  0  0
   33.2260  -11.2955   37.7925 C   0  0  0  0  0  0  0  0  0  0  0  0
   34.2070  -10.8790   36.9245 C   0  0  0  0  0  0  0  0  0  0  0  0
   35.2002  -11.7574   36.5016 C   0  0  0  0  0  0  0  0  0  0  0  0
   37.1384  -18.1894   34.3294 C   0  0  0  0  0  0  0  0  0  0  0  0
   38.2132  -18.7005   35.2301 C   0  0  0  0  0  0  0  0  0  0  0  0
   38.8238  -20.0154   34.7698 C   0  0  0  0  0  0  0  0  0  0  0  0
   38.5658  -21.1138   35.7420 C   0  0  0  0  0  0  0  0  0  0  0  0
   39.2051  -20.8470   38.1289 C   0  0  0  0  0  0  0  0  0  0  0  0
   37.9897  -20.5764   38.4448 O   0  0  0  0  0  0  0  0  0  0  0  0
   39.5570  -21.1298   36.7945 N   0  0  0  0  0  0  0  0  0  0  0  0
   40.5575  -21.3606   36.5308 H   0  0  0  0  0  0  0  0  0  0  0  0
   40.0639  -21.5774   40.2688 C   0  0  0  0  0  0  0  0  0  0  0  0
   40.1830  -20.8499   39.1811 C   0  0  0  0  0  0  0  0  0  0  0  0
 36 37  2  0  0  0
 37 32  1  0  0  0
 32 33  2  0  0  0
 32 34  1  0  0  0
 34 31  1  0  0  0
 31 30  1  0  0  0
 30 29  1  0  0  0
 29 28  1  0  0  0
 28  1  1  0  0  0
  1 17  1  0  0  0
 17 18  1  0  0  0
 18 19  2  0  0  0
 18 21  1  0  0  0
 21 22  1  0  0  0
 22 23  2  0  0  0
 23 24  1  0  0  0
 24 25  2  0  0  0
 25 26  1  0  0  0
 26 27  2  0  0  0
  1  2  1  0  0  0
  2  3  2  0  0  0
  2  4  1  0  0  0
  4  5  1  0  0  0
  5  6  1  0  0  0
  6  7  1  0  0  0
  7 10  1  0  0  0
 10 11  2  0  0  0
 11 12  1  0  0  0
 12 13  2  0  0  0
 13 14  1  0  0  0
 14 15  1  0  0  0
 14 16  2  0  0  0
  7  8  1  0  0  0
  8  9  1  0  0  0
 27 22  1  0  0  0
  9  4  1  0  0  0
 16 10  1  0  0  0
 34 35  1  0  0  0
 17 20  1  0  0  0
M  END
> <minimizedAffinity>
-6.79778

> <CNNscore>
0.3082993925

> <CNNaffinity>
5.5452556610

> <CNN_VS>
1.7095988989

> <CNNaffinity_variance>
0.2515248358

$$$$
[H]C([H])=C([H])C(=O)N([H])C([H])([H])C([H])([H])C([H])([H])C([H])([H])[C@@]([H])(C(=O)N1C([H])([H])C([H])([H])N(c2c([H])c([H])c([H])c(C([H])([H])[H])c2[H])C([H])([H])C1([H])[H])N([H])C(=O)C([H])([H])c1c([H])c([H])c([H])c([H])c1[H]


 37 39  0  0  0  0  0  0  0  0999 V2000
   37.9096  -19.1275   35.2934 C   0  0  0  0  0  0  0  0  0  0  0  0
   36.5292  -18.8798   35.7384 C   0  0  0  0  0  0  0  0  0  0  0  0
   35.7804  -19.8981   35.9513 O   0  0  0  0  0  0  0  0  0  0  0  0
   35.9905  -17.5945   35.9447 N   0  0  0  0  0  0  0  0  0  0  0  0
   36.7608  -16.3999   35.7565 C   0  0  0  0  0  0  0  0  0  0  0  0
   36.3134  -15.3679   36.7864 C   0  0  0  0  0  0  0  0  0  0  0  0
   34.9153  -15.0848   36.5224 N   0  0  0  0  0  0  0  0  0  0  0  0
   34.1195  -16.0732   35.8593 C   0  0  0  0  0  0  0  0  0  0  0  0
   34.6044  -17.4295   36.3711 C   0  0  0  0  0  0  0  0  0  0  0  0
   34.3431  -13.8501   36.9237 C   0  0  0  0  0  0  0  0  0  0  0  0
   35.0612  -12.6847   36.6711 C   0  0  0  0  0  0  0  0  0  0  0  0
   34.5279  -11.4775   37.0443 C   0  0  0  0  0  0  0  0  0  0  0  0
   33.3082  -11.3842   37.6588 C   0  0  0  0  0  0  0  0  0  0  0  0
   32.5788  -12.5194   37.9199 C   0  0  0  0  0  0  0  0  0  0  0  0
   31.2649  -12.4594   38.5806 C   0  0  0  0  0  0  0  0  0  0  0  0
   33.1209  -13.7358   37.5411 C   0  0  0  0  0  0  0  0  0  0  0  0
   38.5603  -20.0996   36.2059 N   0  0  0  0  0  0  0  0  0  0  0  0
   39.7136  -19.7433   36.9278 C   0  0  0  0  0  0  0  0  0  0  0  0
   40.1883  -18.5889   36.7906 O   0  0  0  0  0  0  0  0  0  0  0  0
   38.1386  -21.0230   36.2838 H   0  0  0  0  0  0  0  0  0  0  0  0
   40.3392  -20.7206   37.8248 C   0  0  0  0  0  0  0  0  0  0  0  0
   41.0740  -20.1167   38.9375 C   0  0  0  0  0  0  0  0  0  0  0  0
   40.6357  -20.3965   40.2228 C   0  0  0  0  0  0  0  0  0  0  0  0
   41.2665  -19.8689   41.3335 C   0  0  0  0  0  0  0  0  0  0  0  0
   42.3545  -19.0455   41.2021 C   0  0  0  0  0  0  0  0  0  0  0  0
   42.8028  -18.7576   39.9351 C   0  0  0  0  0  0  0  0  0  0  0  0
   42.1655  -19.2903   38.8186 C   0  0  0  0  0  0  0  0  0  0  0  0
   37.9706  -19.8288   33.9423 C   0  0  0  0  0  0  0  0  0  0  0  0
   39.3513  -19.9718   33.3937 C   0  0  0  0  0  0  0  0  0  0  0  0
   40.0822  -18.6488   33.2227 C   0  0  0  0  0  0  0  0  0  0  0  0
   41.5255  -18.7670   33.5707 C   0  0  0  0  0  0  0  0  0  0  0  0
   43.0045  -17.6045   35.1951 C   0  0  0  0  0  0  0  0  0  0  0  0
   43.4956  -18.7268   35.5814 O   0  0  0  0  0  0  0  0  0  0  0  0
   42.0193  -17.5570   34.1893 N   0  0  0  0  0  0  0  0  0  0  0  0
   41.6165  -16.6324   33.8627 H   0  0  0  0  0  0  0  0  0  0  0  0
   43.6590  -16.2987   37.1229 C   0  0  0  0  0  0  0  0  0  0  0  0
   43.4951  -16.4098   35.8239 C   0  0  0  0  0  0  0  0  0  0  0  0
 36 37  2  0  0  0
 37 32  1  0  0  0
 32 33  2  0  0  0
 32 34  1  0  0  0
 34 31  1  0  0  0
 31 30  1  0  0  0
 30 29  1  0  0  0
 29 28  1  0  0  0
 28  1  1  0  0  0
  1 17  1  0  0  0
 17 18  1  0  0  0
 18 19  2  0  0  0
 18 21  1  0  0  0
 21 22  1  0  0  0
 22 23  2  0  0  0
 23 24  1  0  0  0
 24 25  2  0  0  0
 25 26  1  0  0  0
 26 27  2  0  0  0
  1  2  1  0  0  0
  2  3  2  0  0  0
  2  4  1  0  0  0
  4  5  1  0  0  0
  5  6  1  0  0  0
  6  7  1  0  0  0
  7 10  1  0  0  0
 10 11  2  0  0  0
 11 12  1  0  0  0
 12 13  2  0  0  0
 13 14  1  0  0  0
 14 15  1  0  0  0
 14 16  2  0  0  0
  7  8  1  0  0  0
  8  9  1  0  0  0
 27 22  1  0  0  0
  9  4  1  0  0  0
 16 10  1  0  0  0
 34 35  1  0  0  0
 17 20  1  0  0  0
M  END
> <minimizedAffinity>
-7.27284

> <CNNscore>
0.2940983474

> <CNNaffinity>
6.0069031715

> <CNN_VS>
1.7666202784

> <CNNaffinity_variance>
0.1481501758

$$$$
[H]C([H])=C([H])C(=O)N([H])C([H])([H])C([H])([H])C([H])([H])C([H])([H])[C@@]([H])(C(=O)N1C([H])([H])C([H])([H])N(c2c([H])c([H])c([H])c(C([H])([H])[H])c2[H])C([H])([H])C1([H])[H])N([H])C(=O)C([H])([H])c1c([H])c([H])c([H])c([H])c1[H]


 37 39  0  0  0  0  0  0  0  0999 V2000
   37.1854  -21.0453   37.6392 C   0  0  0  0  0  0  0  0  0  0  0  0
   36.3697  -22.2314   37.3347 C   0  0  0  0  0  0  0  0  0  0  0  0
   36.9705  -23.3602   37.2449 O   0  0  0  0  0  0  0  0  0  0  0  0
   34.9748  -22.1951   37.1410 N   0  0  0  0  0  0  0  0  0  0  0  0
   34.2161  -20.9831   37.2474 C   0  0  0  0  0  0  0  0  0  0  0  0
   32.8496  -21.3172   37.8365 C   0  0  0  0  0  0  0  0  0  0  0  0
   32.1942  -22.2141   36.9036 N   0  0  0  0  0  0  0  0  0  0  0  0
   32.9967  -23.0118   36.0262 C   0  0  0  0  0  0  0  0  0  0  0  0
   34.2367  -23.4139   36.8247 C   0  0  0  0  0  0  0  0  0  0  0  0
   30.7789  -22.3060   36.8676 C   0  0  0  0  0  0  0  0  0  0  0  0
   30.1141  -21.7280   35.7898 C   0  0  0  0  0  0  0  0  0  0  0  0
   28.7462  -21.8075   35.7284 C   0  0  0  0  0  0  0  0  0  0  0  0
   28.0138  -22.4393   36.6970 C   0  0  0  0  0  0  0  0  0  0  0  0
   28.6454  -23.0181   37.7717 C   0  0  0  0  0  0  0  0  0  0  0  0
   27.8921  -23.7043   38.8338 C   0  0  0  0  0  0  0  0  0  0  0  0
   30.0263  -22.9357   37.8294 C   0  0  0  0  0  0  0  0  0  0  0  0
   38.4037  -21.4554   38.3800 N   0  0  0  0  0  0  0  0  0  0  0  0
   38.4108  -21.4862   39.7862 C   0  0  0  0  0  0  0  0  0  0  0  0
   37.3705  -21.1613   40.4099 O   0  0  0  0  0  0  0  0  0  0  0  0
   39.2221  -21.7099   37.8305 H   0  0  0  0  0  0  0  0  0  0  0  0
   39.6264  -21.8958   40.4970 C   0  0  0  0  0  0  0  0  0  0  0  0
   40.6320  -20.8378   40.6077 C   0  0  0  0  0  0  0  0  0  0  0  0
   40.8581  -20.2965   41.8640 C   0  0  0  0  0  0  0  0  0  0  0  0
   41.7866  -19.2925   42.0630 C   0  0  0  0  0  0  0  0  0  0  0  0
   42.5211  -18.7938   41.0186 C   0  0  0  0  0  0  0  0  0  0  0  0
   42.3100  -19.3190   39.7661 C   0  0  0  0  0  0  0  0  0  0  0  0
   41.3742  -20.3300   39.5688 C   0  0  0  0  0  0  0  0  0  0  0  0
   37.7491  -20.3868   36.3863 C   0  0  0  0  0  0  0  0  0  0  0  0
   37.8898  -18.9046   36.4897 C   0  0  0  0  0  0  0  0  0  0  0  0
   36.6512  -18.2084   37.0330 C   0  0  0  0  0  0  0  0  0  0  0  0
   36.2291  -17.0755   36.1633 C   0  0  0  0  0  0  0  0  0  0  0  0
   36.2572  -14.6932   36.8712 C   0  0  0  0  0  0  0  0  0  0  0  0
   34.9747  -14.6783   36.9416 O   0  0  0  0  0  0  0  0  0  0  0  0
   36.9446  -15.8631   36.4927 N   0  0  0  0  0  0  0  0  0  0  0  0
   38.0033  -15.8816   36.4403 H   0  0  0  0  0  0  0  0  0  0  0  0
   38.1936  -13.4612   37.6345 C   0  0  0  0  0  0  0  0  0  0  0  0
   36.9570  -13.4801   37.1907 C   0  0  0  0  0  0  0  0  0  0  0  0
 36 37  2  0  0  0
 37 32  1  0  0  0
 32 33  2  0  0  0
 32 34  1  0  0  0
 34 31  1  0  0  0
 31 30  1  0  0  0
 30 29  1  0  0  0
 29 28  1  0  0  0
 28  1  1  0  0  0
  1 17  1  0  0  0
 17 18  1  0  0  0
 18 19  2  0  0  0
 18 21  1  0  0  0
 21 22  1  0  0  0
 22 23  2  0  0  0
 23 24  1  0  0  0
 24 25  2  0  0  0
 25 26  1  0  0  0
 26 27  2  0  0  0
  1  2  1  0  0  0
  2  3  2  0  0  0
  2  4  1  0  0  0
  4  5  1  0  0  0
  5  6  1  0  0  0
  6  7  1  0  0  0
  7 10  1  0  0  0
 10 11  2  0  0  0
 11 12  1  0  0  0
 12 13  2  0  0  0
 13 14  1  0  0  0
 14 15  1  0  0  0
 14 16  2  0  0  0
  7  8  1  0  0  0
  8  9  1  0  0  0
 27 22  1  0  0  0
  9  4  1  0  0  0
 16 10  1  0  0  0
 34 35  1  0  0  0
 17 20  1  0  0  0
M  END
> <minimizedAffinity>
-5.90900

> <CNNscore>
0.2664374113

> <CNNaffinity>
4.8333296776

> <CNN_VS>
1.2877798080

> <CNNaffinity_variance>
0.6456533074

$$$$
[H]C([H])=C([H])C(=O)N([H])C([H])([H])C([H])([H])C([H])([H])C([H])([H])[C@@]([H])(C(=O)N1C([H])([H])C([H])([H])N(c2c([H])c([H])c([H])c(C([H])([H])[H])c2[H])C([H])([H])C1([H])[H])N([H])C(=O)C([H])([H])c1c([H])c([H])c([H])c([H])c1[H]


 37 39  0  0  0  0  0  0  0  0999 V2000
   36.3032  -17.5853   35.2575 C   0  0  0  0  0  0  0  0  0  0  0  0
   35.8083  -18.5022   36.2964 C   0  0  0  0  0  0  0  0  0  0  0  0
   36.4440  -18.5405   37.4087 O   0  0  0  0  0  0  0  0  0  0  0  0
   34.6808  -19.3319   36.1376 N   0  0  0  0  0  0  0  0  0  0  0  0
   33.8941  -19.3372   34.9389 C   0  0  0  0  0  0  0  0  0  0  0  0
   32.4358  -19.5732   35.3177 C   0  0  0  0  0  0  0  0  0  0  0  0
   32.3670  -20.8801   35.9435 N   0  0  0  0  0  0  0  0  0  0  0  0
   33.5394  -21.4136   36.5687 C   0  0  0  0  0  0  0  0  0  0  0  0
   34.2614  -20.2287   37.2101 C   0  0  0  0  0  0  0  0  0  0  0  0
   31.1532  -21.6147   35.9437 C   0  0  0  0  0  0  0  0  0  0  0  0
   31.0897  -22.7712   35.1716 C   0  0  0  0  0  0  0  0  0  0  0  0
   29.9294  -23.5026   35.1586 C   0  0  0  0  0  0  0  0  0  0  0  0
   28.8301  -23.1285   35.8834 C   0  0  0  0  0  0  0  0  0  0  0  0
   28.8663  -21.9910   36.6539 C   0  0  0  0  0  0  0  0  0  0  0  0
   27.7041  -21.5556   37.4451 C   0  0  0  0  0  0  0  0  0  0  0  0
   30.0396  -21.2560   36.6643 C   0  0  0  0  0  0  0  0  0  0  0  0
   36.6836  -16.2912   35.8754 N   0  0  0  0  0  0  0  0  0  0  0  0
   35.7275  -15.2760   36.0582 C   0  0  0  0  0  0  0  0  0  0  0  0
   34.5438  -15.4779   35.6909 O   0  0  0  0  0  0  0  0  0  0  0  0
   37.6551  -16.1747   36.1568 H   0  0  0  0  0  0  0  0  0  0  0  0
   36.1266  -14.0053   36.6722 C   0  0  0  0  0  0  0  0  0  0  0  0
   35.0001  -13.1885   37.1269 C   0  0  0  0  0  0  0  0  0  0  0  0
   34.9800  -11.8551   36.7472 C   0  0  0  0  0  0  0  0  0  0  0  0
   33.9576  -11.0085   37.1317 C   0  0  0  0  0  0  0  0  0  0  0  0
   32.9212  -11.4606   37.9066 C   0  0  0  0  0  0  0  0  0  0  0  0
   32.9250  -12.7799   38.2921 C   0  0  0  0  0  0  0  0  0  0  0  0
   33.9559  -13.6300   37.9034 C   0  0  0  0  0  0  0  0  0  0  0  0
   37.6059  -18.0634   34.6288 C   0  0  0  0  0  0  0  0  0  0  0  0
   37.5601  -19.4697   34.1310 C   0  0  0  0  0  0  0  0  0  0  0  0
   38.5855  -20.3840   34.7840 C   0  0  0  0  0  0  0  0  0  0  0  0
   39.7193  -20.6855   33.8666 C   0  0  0  0  0  0  0  0  0  0  0  0
   41.4689  -18.9321   34.0718 C   0  0  0  0  0  0  0  0  0  0  0  0
   40.8112  -18.1560   33.2873 O   0  0  0  0  0  0  0  0  0  0  0  0
   40.9737  -20.2082   34.4045 N   0  0  0  0  0  0  0  0  0  0  0  0
   41.5099  -20.8488   35.0572 H   0  0  0  0  0  0  0  0  0  0  0  0
   42.8770  -17.2380   35.0704 C   0  0  0  0  0  0  0  0  0  0  0  0
   42.7186  -18.4515   34.5918 C   0  0  0  0  0  0  0  0  0  0  0  0
 36 37  2  0  0  0
 37 32  1  0  0  0
 32 33  2  0  0  0
 32 34  1  0  0  0
 34 31  1  0  0  0
 31 30  1  0  0  0
 30 29  1  0  0  0
 29 28  1  0  0  0
 28  1  1  0  0  0
  1 17  1  0  0  0
 17 18  1  0  0  0
 18 19  2  0  0  0
 18 21  1  0  0  0
 21 22  1  0  0  0
 22 23  2  0  0  0
 23 24  1  0  0  0
 24 25  2  0  0  0
 25 26  1  0  0  0
 26 27  2  0  0  0
  1  2  1  0  0  0
  2  3  2  0  0  0
  2  4  1  0  0  0
  4  5  1  0  0  0
  5  6  1  0  0  0
  6  7  1  0  0  0
  7 10  1  0  0  0
 10 11  2  0  0  0
 11 12  1  0  0  0
 12 13  2  0  0  0
 13 14  1  0  0  0
 14 15  1  0  0  0
 14 16  2  0  0  0
  7  8  1  0  0  0
  8  9  1  0  0  0
 27 22  1  0  0  0
  9  4  1  0  0  0
 16 10  1  0  0  0
 34 35  1  0  0  0
 17 20  1  0  0  0
M  END
> <minimizedAffinity>
-7.16150

> <CNNscore>
0.2641232312

> <CNNaffinity>
5.6460585594

> <CNN_VS>
1.4912552834

> <CNNaffinity_variance>
0.2822259068

$$$$
[H]C([H])=C([H])C(=O)N([H])C([H])([H])C([H])([H])C([H])([H])C([H])([H])[C@@]([H])(C(=O)N1C([H])([H])C([H])([H])N(c2c([H])c([H])c([H])c(C([H])([H])[H])c2[H])C([H])([H])C1([H])[H])N([H])C(=O)C([H])([H])c1c([H])c([H])c([H])c([H])c1[H]


 37 39  0  0  0  0  0  0  0  0999 V2000
   38.3816  -19.9217   36.4182 C   0  0  0  0  0  0  0  0  0  0  0  0
   36.9589  -19.5512   36.4765 C   0  0  0  0  0  0  0  0  0  0  0  0
   36.0976  -20.4998   36.5119 O   0  0  0  0  0  0  0  0  0  0  0  0
   36.4952  -18.2211   36.4984 N   0  0  0  0  0  0  0  0  0  0  0  0
   37.3856  -17.0973   36.4877 C   0  0  0  0  0  0  0  0  0  0  0  0
   36.7736  -15.9864   37.3347 C   0  0  0  0  0  0  0  0  0  0  0  0
   35.5217  -15.6136   36.7037 N   0  0  0  0  0  0  0  0  0  0  0  0
   34.8460  -16.5712   35.8812 C   0  0  0  0  0  0  0  0  0  0  0  0
   35.0648  -17.9335   36.5394 C   0  0  0  0  0  0  0  0  0  0  0  0
   34.9706  -14.3221   36.9062 C   0  0  0  0  0  0  0  0  0  0  0  0
   35.6468  -13.2316   36.3666 C   0  0  0  0  0  0  0  0  0  0  0  0
   35.1323  -11.9725   36.5435 C   0  0  0  0  0  0  0  0  0  0  0  0
   33.9715  -11.7559   37.2360 C   0  0  0  0  0  0  0  0  0  0  0  0
   33.2843  -12.8151   37.7789 C   0  0  0  0  0  0  0  0  0  0  0  0
   32.0343  -12.6217   38.5315 C   0  0  0  0  0  0  0  0  0  0  0  0
   33.8072  -14.0842   37.5976 C   0  0  0  0  0  0  0  0  0  0  0  0
   38.7011  -20.8484   37.5319 N   0  0  0  0  0  0  0  0  0  0  0  0
   39.9268  -20.7520   38.2150 C   0  0  0  0  0  0  0  0  0  0  0  0
   40.7509  -19.8696   37.8701 O   0  0  0  0  0  0  0  0  0  0  0  0
   38.0014  -21.5468   37.7748 H   0  0  0  0  0  0  0  0  0  0  0  0
   40.2203  -21.6784   39.3134 C   0  0  0  0  0  0  0  0  0  0  0  0
   40.0292  -21.0981   40.6437 C   0  0  0  0  0  0  0  0  0  0  0  0
   38.8859  -21.4563   41.3416 C   0  0  0  0  0  0  0  0  0  0  0  0
   38.6214  -20.9564   42.6025 C   0  0  0  0  0  0  0  0  0  0  0  0
   39.4857  -20.0837   43.2110 C   0  0  0  0  0  0  0  0  0  0  0  0
   40.6243  -19.7178   42.5335 C   0  0  0  0  0  0  0  0  0  0  0  0
   40.8880  -20.2228   41.2638 C   0  0  0  0  0  0  0  0  0  0  0  0
   38.7216  -20.7410   35.1796 C   0  0  0  0  0  0  0  0  0  0  0  0
   38.3524  -20.0798   33.8935 C   0  0  0  0  0  0  0  0  0  0  0  0
   39.5476  -19.5748   33.0996 C   0  0  0  0  0  0  0  0  0  0  0  0
   40.8138  -20.2283   33.5332 C   0  0  0  0  0  0  0  0  0  0  0  0
   41.9530  -22.3688   32.9875 C   0  0  0  0  0  0  0  0  0  0  0  0
   42.2159  -22.5683   34.2290 O   0  0  0  0  0  0  0  0  0  0  0  0
   41.2501  -21.2196   32.5754 N   0  0  0  0  0  0  0  0  0  0  0  0
   41.0250  -21.0548   31.5527 H   0  0  0  0  0  0  0  0  0  0  0  0
   41.5904  -24.2120   31.4640 C   0  0  0  0  0  0  0  0  0  0  0  0
   42.4004  -23.3552   32.0440 C   0  0  0  0  0  0  0  0  0  0  0  0
 36 37  2  0  0  0
 37 32  1  0  0  0
 32 33  2  0  0  0
 32 34  1  0  0  0
 34 31  1  0  0  0
 31 30  1  0  0  0
 30 29  1  0  0  0
 29 28  1  0  0  0
 28  1  1  0  0  0
  1 17  1  0  0  0
 17 18  1  0  0  0
 18 19  2  0  0  0
 18 21  1  0  0  0
 21 22  1  0  0  0
 22 23  2  0  0  0
 23 24  1  0  0  0
 24 25  2  0  0  0
 25 26  1  0  0  0
 26 27  2  0  0  0
  1  2  1  0  0  0
  2  3  2  0  0  0
  2  4  1  0  0  0
  4  5  1  0  0  0
  5  6  1  0  0  0
  6  7  1  0  0  0
  7 10  1  0  0  0
 10 11  2  0  0  0
 11 12  1  0  0  0
 12 13  2  0  0  0
 13 14  1  0  0  0
 14 15  1  0  0  0
 14 16  2  0  0  0
  7  8  1  0  0  0
  8  9  1  0  0  0
 27 22  1  0  0  0
  9  4  1  0  0  0
 16 10  1  0  0  0
 34 35  1  0  0  0
 17 20  1  0  0  0
M  END
> <minimizedAffinity>
-6.42943

> <CNNscore>
0.2567456961

> <CNNaffinity>
5.5207214355

> <CNN_VS>
1.4174214602

> <CNNaffinity_variance>
0.1515057832

$$$$
[H]c1nc([H])c(N([H])c2c([H])c(-c3c([H])c([H])c4c([H])c(C#N)c([H])nn34)nc([H])c2C(=O)N([H])[C@]2([H])C([H])([H])C([H])([H])[C@@]([H])(N([H])C(=O)C3([H])C([H])([H])C3([H])[H])C([H])([H])C2([H])[H])c([H])c1[H]


 42 47  0  0  0  0  0  0  0  0999 V2000
   40.3625  -19.8532   37.0872 C   0  0  0  0  0  0  0  0  0  0  0  0
   39.5502  -20.7061   37.7729 C   0  0  0  0  0  0  0  0  0  0  0  0
   38.1613  -20.6483   37.8467 C   0  0  0  0  0  0  0  0  0  0  0  0
   37.5534  -19.6054   37.1402 C   0  0  0  0  0  0  0  0  0  0  0  0
   38.3776  -18.7187   36.4319 C   0  0  0  0  0  0  0  0  0  0  0  0
   39.7062  -18.8536   36.4189 N   0  0  0  0  0  0  0  0  0  0  0  0
   44.5462  -22.2589   35.1363 C   0  0  0  0  0  0  0  0  0  0  0  0
   43.2149  -22.5241   34.9461 C   0  0  0  0  0  0  0  0  0  0  0  0
   42.3137  -21.7547   35.5598 N   0  0  0  0  0  0  0  0  0  0  0  0
   42.6239  -20.7393   36.3496 N   0  0  0  0  0  0  0  0  0  0  0  0
   41.8157  -19.9163   37.0071 C   0  0  0  0  0  0  0  0  0  0  0  0
   42.6558  -19.0282   37.6919 C   0  0  0  0  0  0  0  0  0  0  0  0
   43.9587  -19.3582   37.4140 C   0  0  0  0  0  0  0  0  0  0  0  0
   43.9198  -20.4549   36.5539 C   0  0  0  0  0  0  0  0  0  0  0  0
   44.9012  -21.2073   35.9528 C   0  0  0  0  0  0  0  0  0  0  0  0
   46.3095  -23.7476   33.9617 N   0  0  0  0  0  0  0  0  0  0  0  0
   45.5232  -23.0791   34.4890 C   0  0  0  0  0  0  0  0  0  0  0  0
   36.1227  -19.4781   37.0478 C   0  0  0  0  0  0  0  0  0  0  0  0
   35.4613  -19.0545   38.0585 O   0  0  0  0  0  0  0  0  0  0  0  0
   35.3813  -19.7926   35.8935 N   0  0  0  0  0  0  0  0  0  0  0  0
   35.8709  -20.1306   35.0453 H   0  0  0  0  0  0  0  0  0  0  0  0
   33.9365  -19.6246   35.9314 C   0  0  0  0  0  0  0  0  0  0  0  0
   33.4629  -19.6727   34.4754 C   0  0  0  0  0  0  0  0  0  0  0  0
   31.9391  -19.7121   34.4581 C   0  0  0  0  0  0  0  0  0  0  0  0
   31.5681  -21.1313   34.9136 C   0  0  0  0  0  0  0  0  0  0  0  0
   32.6049  -21.6981   35.8200 C   0  0  0  0  0  0  0  0  0  0  0  0
   33.1988  -20.6205   36.7428 C   0  0  0  0  0  0  0  0  0  0  0  0
   30.2931  -21.0264   35.6079 N   0  0  0  0  0  0  0  0  0  0  0  0
   29.4582  -22.1588   35.7042 C   0  0  0  0  0  0  0  0  0  0  0  0
   29.8190  -23.2628   35.1792 O   0  0  0  0  0  0  0  0  0  0  0  0
   29.9957  -20.1322   36.0335 H   0  0  0  0  0  0  0  0  0  0  0  0
   28.1648  -22.0845   36.4073 C   0  0  0  0  0  0  0  0  0  0  0  0
   27.9097  -21.0212   37.3809 C   0  0  0  0  0  0  0  0  0  0  0  0
   28.3166  -22.3539   37.9179 C   0  0  0  0  0  0  0  0  0  0  0  0
   37.4704  -21.5176   38.6920 N   0  0  0  0  0  0  0  0  0  0  0  0
   36.9069  -22.3051   38.3050 H   0  0  0  0  0  0  0  0  0  0  0  0
   37.4246  -21.3839   40.0947 C   0  0  0  0  0  0  0  0  0  0  0  0
   38.5502  -21.4055   40.9286 C   0  0  0  0  0  0  0  0  0  0  0  0
   38.4434  -21.2722   42.2889 C   0  0  0  0  0  0  0  0  0  0  0  0
   37.1989  -21.1133   42.8508 C   0  0  0  0  0  0  0  0  0  0  0  0
   36.0979  -21.0890   42.0807 N   0  0  0  0  0  0  0  0  0  0  0  0
   36.2066  -21.2183   40.7580 C   0  0  0  0  0  0  0  0  0  0  0  0
 16 17  3  0  0  0
 17  7  1  0  0  0
  7  8  1  0  0  0
  8  9  2  0  0  0
  9 10  1  0  0  0
 10 11  1  0  0  0
 11  1  1  0  0  0
  1  2  2  0  0  0
  2  3  1  0  0  0
  3 35  1  0  0  0
 35 37  1  0  0  0
 37 38  2  0  0  0
 38 39  1  0  0  0
 39 40  2  0  0  0
 40 41  1  0  0  0
 41 42  2  0  0  0
  3  4  2  0  0  0
  4 18  1  0  0  0
 18 19  2  0  0  0
 18 20  1  0  0  0
 20 22  1  0  0  0
 22 23  1  0  0  0
 23 24  1  0  0  0
 24 25  1  0  0  0
 25 28  1  0  0  0
 28 29  1  0  0  0
 29 30  2  0  0  0
 29 32  1  0  0  0
 32 33  1  0  0  0
 33 34  1  0  0  0
 25 26  1  0  0  0
 26 27  1  0  0  0
  4  5  1  0  0  0
  5  6  2  0  0  0
 11 12  2  0  0  0
 12 13  1  0  0  0
 13 14  2  0  0  0
 14 15  1  0  0  0
 15  7  2  0  0  0
 14 10  1  0  0  0
  6  1  1  0  0  0
 42 37  1  0  0  0
 27 22  1  0  0  0
 34 32  1  0  0  0
 35 36  1  0  0  0
 20 21  1  0  0  0
 28 31  1  0  0  0
M  END
> <minimizedAffinity>
-5.55575

> <CNNscore>
0.3662171960

> <CNNaffinity>
5.9813604355

> <CNN_VS>
2.1904771328

> <CNNaffinity_variance>
0.0219711848

$$$$
[H]c1nc([H])c(N([H])c2c([H])c(-c3c([H])c([H])c4c([H])c(C#N)c([H])nn34)nc([H])c2C(=O)N([H])[C@]2([H])C([H])([H])C([H])([H])[C@@]([H])(N([H])C(=O)C3([H])C([H])([H])C3([H])[H])C([H])([H])C2([H])[H])c([H])c1[H]


 42 47  0  0  0  0  0  0  0  0999 V2000
   31.4785  -21.4175   36.8951 C   0  0  0  0  0  0  0  0  0  0  0  0
   32.4745  -21.9824   37.6342 C   0  0  0  0  0  0  0  0  0  0  0  0
   33.7723  -21.5009   37.7816 C   0  0  0  0  0  0  0  0  0  0  0  0
   34.0679  -20.3175   37.0973 C   0  0  0  0  0  0  0  0  0  0  0  0
   33.0527  -19.7264   36.3308 C   0  0  0  0  0  0  0  0  0  0  0  0
   31.8325  -20.2628   36.2484 N   0  0  0  0  0  0  0  0  0  0  0  0
   27.1935  -23.2397   39.2220 C   0  0  0  0  0  0  0  0  0  0  0  0
   28.3795  -22.8256   39.7704 C   0  0  0  0  0  0  0  0  0  0  0  0
   29.3441  -22.3899   38.9579 N   0  0  0  0  0  0  0  0  0  0  0  0
   29.2303  -22.3300   37.6409 N   0  0  0  0  0  0  0  0  0  0  0  0
   30.1193  -21.9195   36.7442 C   0  0  0  0  0  0  0  0  0  0  0  0
   29.4943  -22.0635   35.4985 C   0  0  0  0  0  0  0  0  0  0  0  0
   28.2319  -22.5635   35.6990 C   0  0  0  0  0  0  0  0  0  0  0  0
   28.0798  -22.7280   37.0752 C   0  0  0  0  0  0  0  0  0  0  0  0
   27.0440  -23.1886   37.8532 C   0  0  0  0  0  0  0  0  0  0  0  0
   25.3095  -24.0927   40.7803 N   0  0  0  0  0  0  0  0  0  0  0  0
   26.1526  -23.7144   40.0808 C   0  0  0  0  0  0  0  0  0  0  0  0
   35.3376  -19.6536   37.2334 C   0  0  0  0  0  0  0  0  0  0  0  0
   35.4651  -18.7062   38.0845 O   0  0  0  0  0  0  0  0  0  0  0  0
   36.4788  -19.9832   36.4783 N   0  0  0  0  0  0  0  0  0  0  0  0
   36.4301  -20.7493   35.7825 H   0  0  0  0  0  0  0  0  0  0  0  0
   37.7025  -19.2305   36.7085 C   0  0  0  0  0  0  0  0  0  0  0  0
   38.7781  -20.2625   37.0620 C   0  0  0  0  0  0  0  0  0  0  0  0
   40.1308  -19.5615   37.1106 C   0  0  0  0  0  0  0  0  0  0  0  0
   40.4917  -19.2813   35.6442 C   0  0  0  0  0  0  0  0  0  0  0  0
   39.2709  -19.1117   34.8083 C   0  0  0  0  0  0  0  0  0  0  0  0
   38.1551  -18.3860   35.5787 C   0  0  0  0  0  0  0  0  0  0  0  0
   41.2834  -18.0598   35.6356 N   0  0  0  0  0  0  0  0  0  0  0  0
   42.6739  -18.1335   35.4126 C   0  0  0  0  0  0  0  0  0  0  0  0
   43.2302  -19.2651   35.2271 O   0  0  0  0  0  0  0  0  0  0  0  0
   40.8363  -17.1399   35.7876 H   0  0  0  0  0  0  0  0  0  0  0  0
   43.4999  -16.9127   35.3913 C   0  0  0  0  0  0  0  0  0  0  0  0
   44.8234  -16.9015   36.0170 C   0  0  0  0  0  0  0  0  0  0  0  0
   43.6924  -16.3255   36.8039 C   0  0  0  0  0  0  0  0  0  0  0  0
   34.7226  -22.2554   38.4709 N   0  0  0  0  0  0  0  0  0  0  0  0
   35.0518  -23.1718   38.0974 H   0  0  0  0  0  0  0  0  0  0  0  0
   35.2651  -21.8905   39.7199 C   0  0  0  0  0  0  0  0  0  0  0  0
   36.6348  -21.8790   40.0145 C   0  0  0  0  0  0  0  0  0  0  0  0
   37.1043  -21.5158   41.2504 C   0  0  0  0  0  0  0  0  0  0  0  0
   36.2079  -21.1533   42.2276 C   0  0  0  0  0  0  0  0  0  0  0  0
   34.8871  -21.1540   41.9795 N   0  0  0  0  0  0  0  0  0  0  0  0
   34.4351  -21.5073   40.7759 C   0  0  0  0  0  0  0  0  0  0  0  0
 16 17  3  0  0  0
 17  7  1  0  0  0
  7  8  1  0  0  0
  8  9  2  0  0  0
  9 10  1  0  0  0
 10 11  1  0  0  0
 11  1  1  0  0  0
  1  2  2  0  0  0
  2  3  1  0  0  0
  3 35  1  0  0  0
 35 37  1  0  0  0
 37 38  2  0  0  0
 38 39  1  0  0  0
 39 40  2  0  0  0
 40 41  1  0  0  0
 41 42  2  0  0  0
  3  4  2  0  0  0
  4 18  1  0  0  0
 18 19  2  0  0  0
 18 20  1  0  0  0
 20 22  1  0  0  0
 22 23  1  0  0  0
 23 24  1  0  0  0
 24 25  1  0  0  0
 25 28  1  0  0  0
 28 29  1  0  0  0
 29 30  2  0  0  0
 29 32  1  0  0  0
 32 33  1  0  0  0
 33 34  1  0  0  0
 25 26  1  0  0  0
 26 27  1  0  0  0
  4  5  1  0  0  0
  5  6  2  0  0  0
 11 12  2  0  0  0
 12 13  1  0  0  0
 13 14  2  0  0  0
 14 15  1  0  0  0
 15  7  2  0  0  0
 14 10  1  0  0  0
  6  1  1  0  0  0
 42 37  1  0  0  0
 27 22  1  0  0  0
 34 32  1  0  0  0
 35 36  1  0  0  0
 20 21  1  0  0  0
 28 31  1  0  0  0
M  END
> <minimizedAffinity>
-5.90521

> <CNNscore>
0.3183944225

> <CNNaffinity>
5.5511274338

> <CNN_VS>
1.7674480677

> <CNNaffinity_variance>
0.2371785641

$$$$
[H]c1nc([H])c(N([H])c2c([H])c(-c3c([H])c([H])c4c([H])c(C#N)c([H])nn34)nc([H])c2C(=O)N([H])[C@]2([H])C([H])([H])C([H])([H])[C@@]([H])(N([H])C(=O)C3([H])C([H])([H])C3([H])[H])C([H])([H])C2([H])[H])c([H])c1[H]


 42 47  0  0  0  0  0  0  0  0999 V2000
   35.0630  -14.4609   37.0815 C   0  0  0  0  0  0  0  0  0  0  0  0
   34.7583  -15.3627   36.1061 C   0  0  0  0  0  0  0  0  0  0  0  0
   35.4342  -16.5488   35.8335 C   0  0  0  0  0  0  0  0  0  0  0  0
   36.5332  -16.8293   36.6519 C   0  0  0  0  0  0  0  0  0  0  0  0
   36.8595  -15.9086   37.6585 C   0  0  0  0  0  0  0  0  0  0  0  0
   36.1501  -14.7927   37.8461 N   0  0  0  0  0  0  0  0  0  0  0  0
   34.6517   -9.3429   36.2249 C   0  0  0  0  0  0  0  0  0  0  0  0
   35.5372  -10.2501   35.7035 C   0  0  0  0  0  0  0  0  0  0  0  0
   35.4412  -11.5275   36.0774 N   0  0  0  0  0  0  0  0  0  0  0  0
   34.5361  -11.9825   36.9288 N   0  0  0  0  0  0  0  0  0  0  0  0
   34.3531  -13.2217   37.3690 C   0  0  0  0  0  0  0  0  0  0  0  0
   33.2665  -13.1532   38.2510 C   0  0  0  0  0  0  0  0  0  0  0  0
   32.8315  -11.8526   38.3070 C   0  0  0  0  0  0  0  0  0  0  0  0
   33.6548  -11.1175   37.4552 C   0  0  0  0  0  0  0  0  0  0  0  0
   33.6967   -9.7863   37.1137 C   0  0  0  0  0  0  0  0  0  0  0  0
   34.8202   -6.8580   35.5166 N   0  0  0  0  0  0  0  0  0  0  0  0
   34.7465   -7.9693   35.8371 C   0  0  0  0  0  0  0  0  0  0  0  0
   37.2670  -18.0632   36.5484 C   0  0  0  0  0  0  0  0  0  0  0  0
   36.6359  -19.1763   36.5821 O   0  0  0  0  0  0  0  0  0  0  0  0
   38.6656  -18.1332   36.4067 N   0  0  0  0  0  0  0  0  0  0  0  0
   39.2216  -17.2600   36.3646 H   0  0  0  0  0  0  0  0  0  0  0  0
   39.2877  -19.4455   36.3178 C   0  0  0  0  0  0  0  0  0  0  0  0
   40.2451  -19.3840   35.1236 C   0  0  0  0  0  0  0  0  0  0  0  0
   41.0823  -20.6577   35.1022 C   0  0  0  0  0  0  0  0  0  0  0  0
   42.0792  -20.5035   36.2603 C   0  0  0  0  0  0  0  0  0  0  0  0
   41.5190  -19.6549   37.3484 C   0  0  0  0  0  0  0  0  0  0  0  0
   40.0107  -19.8931   37.5309 C   0  0  0  0  0  0  0  0  0  0  0  0
   42.3533  -21.8444   36.7560 N   0  0  0  0  0  0  0  0  0  0  0  0
   43.6582  -22.1785   37.1736 C   0  0  0  0  0  0  0  0  0  0  0  0
   44.5895  -21.3108   37.1091 O   0  0  0  0  0  0  0  0  0  0  0  0
   41.6010  -22.5519   36.8081 H   0  0  0  0  0  0  0  0  0  0  0  0
   43.9637  -23.5262   37.6867 C   0  0  0  0  0  0  0  0  0  0  0  0
   45.3480  -23.9983   37.7537 C   0  0  0  0  0  0  0  0  0  0  0  0
   44.5313  -24.4443   36.5856 C   0  0  0  0  0  0  0  0  0  0  0  0
   35.0826  -17.3124   34.7197 N   0  0  0  0  0  0  0  0  0  0  0  0
   35.5932  -17.2079   33.8164 H   0  0  0  0  0  0  0  0  0  0  0  0
   34.0063  -18.2226   34.6949 C   0  0  0  0  0  0  0  0  0  0  0  0
   32.8074  -18.0494   35.3989 C   0  0  0  0  0  0  0  0  0  0  0  0
   31.7946  -18.9714   35.3376 C   0  0  0  0  0  0  0  0  0  0  0  0
   31.9590  -20.0967   34.5652 C   0  0  0  0  0  0  0  0  0  0  0  0
   33.0964  -20.2951   33.8776 N   0  0  0  0  0  0  0  0  0  0  0  0
   34.0784  -19.3953   33.9396 C   0  0  0  0  0  0  0  0  0  0  0  0
 16 17  3  0  0  0
 17  7  1  0  0  0
  7  8  1  0  0  0
  8  9  2  0  0  0
  9 10  1  0  0  0
 10 11  1  0  0  0
 11  1  1  0  0  0
  1  2  2  0  0  0
  2  3  1  0  0  0
  3 35  1  0  0  0
 35 37  1  0  0  0
 37 38  2  0  0  0
 38 39  1  0  0  0
 39 40  2  0  0  0
 40 41  1  0  0  0
 41 42  2  0  0  0
  3  4  2  0  0  0
  4 18  1  0  0  0
 18 19  2  0  0  0
 18 20  1  0  0  0
 20 22  1  0  0  0
 22 23  1  0  0  0
 23 24  1  0  0  0
 24 25  1  0  0  0
 25 28  1  0  0  0
 28 29  1  0  0  0
 29 30  2  0  0  0
 29 32  1  0  0  0
 32 33  1  0  0  0
 33 34  1  0  0  0
 25 26  1  0  0  0
 26 27  1  0  0  0
  4  5  1  0  0  0
  5  6  2  0  0  0
 11 12  2  0  0  0
 12 13  1  0  0  0
 13 14  2  0  0  0
 14 15  1  0  0  0
 15  7  2  0  0  0
 14 10  1  0  0  0
  6  1  1  0  0  0
 42 37  1  0  0  0
 27 22  1  0  0  0
 34 32  1  0  0  0
 35 36  1  0  0  0
 20 21  1  0  0  0
 28 31  1  0  0  0
M  END
> <minimizedAffinity>
-8.31831

> <CNNscore>
0.3010501564

> <CNNaffinity>
6.6685819626

> <CNN_VS>
2.0075776577

> <CNNaffinity_variance>
0.0868034512

$$$$
[H]c1nc([H])c(N([H])c2c([H])c(-c3c([H])c([H])c4c([H])c(C#N)c([H])nn34)nc([H])c2C(=O)N([H])[C@]2([H])C([H])([H])C([H])([H])[C@@]([H])(N([H])C(=O)C3([H])C([H])([H])C3([H])[H])C([H])([H])C2([H])[H])c([H])c1[H]


 42 47  0  0  0  0  0  0  0  0999 V2000
   35.0355  -14.4154   37.1070 C   0  0  0  0  0  0  0  0  0  0  0  0
   34.6205  -15.4079   36.2702 C   0  0  0  0  0  0  0  0  0  0  0  0
   35.2919  -16.5963   35.9968 C   0  0  0  0  0  0  0  0  0  0  0  0
   36.5128  -16.7752   36.6553 C   0  0  0  0  0  0  0  0  0  0  0  0
   36.9533  -15.7606   37.5178 C   0  0  0  0  0  0  0  0  0  0  0  0
   36.2385  -14.6505   37.7186 N   0  0  0  0  0  0  0  0  0  0  0  0
   34.6304   -9.2990   36.2378 C   0  0  0  0  0  0  0  0  0  0  0  0
   35.5098  -10.2100   35.7128 C   0  0  0  0  0  0  0  0  0  0  0  0
   35.4135  -11.4859   36.0913 N   0  0  0  0  0  0  0  0  0  0  0  0
   34.5136  -11.9362   36.9506 N   0  0  0  0  0  0  0  0  0  0  0  0
   34.3307  -13.1736   37.3959 C   0  0  0  0  0  0  0  0  0  0  0  0
   33.2508  -13.0997   38.2856 C   0  0  0  0  0  0  0  0  0  0  0  0
   32.8194  -11.7979   38.3408 C   0  0  0  0  0  0  0  0  0  0  0  0
   33.6382  -11.0674   37.4808 C   0  0  0  0  0  0  0  0  0  0  0  0
   33.6808   -9.7373   37.1350 C   0  0  0  0  0  0  0  0  0  0  0  0
   34.7956   -6.8145   35.5273 N   0  0  0  0  0  0  0  0  0  0  0  0
   34.7256   -7.9268   35.8451 C   0  0  0  0  0  0  0  0  0  0  0  0
   37.2691  -17.9948   36.5433 C   0  0  0  0  0  0  0  0  0  0  0  0
   36.9191  -19.0182   37.2276 O   0  0  0  0  0  0  0  0  0  0  0  0
   38.3940  -18.1451   35.7108 N   0  0  0  0  0  0  0  0  0  0  0  0
   38.7122  -17.3489   35.1292 H   0  0  0  0  0  0  0  0  0  0  0  0
   39.0748  -19.4309   35.6924 C   0  0  0  0  0  0  0  0  0  0  0  0
   38.5971  -20.1486   34.4261 C   0  0  0  0  0  0  0  0  0  0  0  0
   39.4288  -21.4121   34.2373 C   0  0  0  0  0  0  0  0  0  0  0  0
   40.8068  -20.9206   33.7699 C   0  0  0  0  0  0  0  0  0  0  0  0
   41.1033  -19.5588   34.2947 C   0  0  0  0  0  0  0  0  0  0  0  0
   40.5547  -19.3705   35.7190 C   0  0  0  0  0  0  0  0  0  0  0  0
   41.7827  -21.8780   34.2699 N   0  0  0  0  0  0  0  0  0  0  0  0
   42.3576  -22.8125   33.3840 C   0  0  0  0  0  0  0  0  0  0  0  0
   42.0168  -22.8192   32.1559 O   0  0  0  0  0  0  0  0  0  0  0  0
   42.0605  -21.8773   35.2660 H   0  0  0  0  0  0  0  0  0  0  0  0
   43.3536  -23.7892   33.8604 C   0  0  0  0  0  0  0  0  0  0  0  0
   43.6094  -25.0167   33.1045 C   0  0  0  0  0  0  0  0  0  0  0  0
   42.6970  -25.1189   34.2824 C   0  0  0  0  0  0  0  0  0  0  0  0
   34.8040  -17.4646   35.0194 N   0  0  0  0  0  0  0  0  0  0  0  0
   35.2339  -17.4973   34.0699 H   0  0  0  0  0  0  0  0  0  0  0  0
   33.6884  -18.3077   35.1988 C   0  0  0  0  0  0  0  0  0  0  0  0
   32.6301  -18.4239   34.2880 C   0  0  0  0  0  0  0  0  0  0  0  0
   31.5688  -19.2608   34.5177 C   0  0  0  0  0  0  0  0  0  0  0  0
   31.5411  -20.0062   35.6724 C   0  0  0  0  0  0  0  0  0  0  0  0
   32.5390  -19.9186   36.5681 N   0  0  0  0  0  0  0  0  0  0  0  0
   33.5696  -19.1039   36.3402 C   0  0  0  0  0  0  0  0  0  0  0  0
 16 17  3  0  0  0
 17  7  1  0  0  0
  7  8  1  0  0  0
  8  9  2  0  0  0
  9 10  1  0  0  0
 10 11  1  0  0  0
 11  1  1  0  0  0
  1  2  2  0  0  0
  2  3  1  0  0  0
  3 35  1  0  0  0
 35 37  1  0  0  0
 37 38  2  0  0  0
 38 39  1  0  0  0
 39 40  2  0  0  0
 40 41  1  0  0  0
 41 42  2  0  0  0
  3  4  2  0  0  0
  4 18  1  0  0  0
 18 19  2  0  0  0
 18 20  1  0  0  0
 20 22  1  0  0  0
 22 23  1  0  0  0
 23 24  1  0  0  0
 24 25  1  0  0  0
 25 28  1  0  0  0
 28 29  1  0  0  0
 29 30  2  0  0  0
 29 32  1  0  0  0
 32 33  1  0  0  0
 33 34  1  0  0  0
 25 26  1  0  0  0
 26 27  1  0  0  0
  4  5  1  0  0  0
  5  6  2  0  0  0
 11 12  2  0  0  0
 12 13  1  0  0  0
 13 14  2  0  0  0
 14 15  1  0  0  0
 15  7  2  0  0  0
 14 10  1  0  0  0
  6  1  1  0  0  0
 42 37  1  0  0  0
 27 22  1  0  0  0
 34 32  1  0  0  0
 35 36  1  0  0  0
 20 21  1  0  0  0
 28 31  1  0  0  0
M  END
> <minimizedAffinity>
-8.81240

> <CNNscore>
0.3008194566

> <CNNaffinity>
6.8199396133

> <CNN_VS>
2.0515704155

> <CNNaffinity_variance>
0.0276388172

$$$$
[H]c1nc([H])c(N([H])c2c([H])c(-c3c([H])c([H])c4c([H])c(C#N)c([H])nn34)nc([H])c2C(=O)N([H])[C@]2([H])C([H])([H])C([H])([H])[C@@]([H])(N([H])C(=O)C3([H])C([H])([H])C3([H])[H])C([H])([H])C2([H])[H])c([H])c1[H]


 42 47  0  0  0  0  0  0  0  0999 V2000
   39.7837  -19.4451   36.9841 C   0  0  0  0  0  0  0  0  0  0  0  0
   39.0310  -18.4365   36.4612 C   0  0  0  0  0  0  0  0  0  0  0  0
   37.6481  -18.4314   36.3014 C   0  0  0  0  0  0  0  0  0  0  0  0
   36.9784  -19.5837   36.7257 C   0  0  0  0  0  0  0  0  0  0  0  0
   37.7410  -20.6307   37.2639 C   0  0  0  0  0  0  0  0  0  0  0  0
   39.0689  -20.5453   37.3782 N   0  0  0  0  0  0  0  0  0  0  0  0
   43.8482  -20.8213   39.9308 C   0  0  0  0  0  0  0  0  0  0  0  0
   42.5087  -21.0302   40.1331 C   0  0  0  0  0  0  0  0  0  0  0  0
   41.6446  -20.5803   39.2212 N   0  0  0  0  0  0  0  0  0  0  0  0
   41.9996  -19.9380   38.1201 N   0  0  0  0  0  0  0  0  0  0  0  0
   41.2304  -19.4486   37.1547 C   0  0  0  0  0  0  0  0  0  0  0  0
   42.1081  -18.8667   36.2303 C   0  0  0  0  0  0  0  0  0  0  0  0
   43.3926  -19.0324   36.6844 C   0  0  0  0  0  0  0  0  0  0  0  0
   43.3047  -19.7196   37.8943 C   0  0  0  0  0  0  0  0  0  0  0  0
   44.2495  -20.1559   38.7928 C   0  0  0  0  0  0  0  0  0  0  0  0
   45.5409  -21.6818   41.6913 N   0  0  0  0  0  0  0  0  0  0  0  0
   44.7854  -21.2933   40.9029 C   0  0  0  0  0  0  0  0  0  0  0  0
   35.5425  -19.6816   36.7101 C   0  0  0  0  0  0  0  0  0  0  0  0
   34.8585  -19.0504   37.5887 O   0  0  0  0  0  0  0  0  0  0  0  0
   34.8194  -20.4405   35.7709 N   0  0  0  0  0  0  0  0  0  0  0  0
   35.3262  -20.9624   35.0332 H   0  0  0  0  0  0  0  0  0  0  0  0
   33.3677  -20.4608   35.8674 C   0  0  0  0  0  0  0  0  0  0  0  0
   32.8455  -20.5401   34.4295 C   0  0  0  0  0  0  0  0  0  0  0  0
   31.3398  -20.7751   34.4686 C   0  0  0  0  0  0  0  0  0  0  0  0
   31.1722  -22.2391   34.9018 C   0  0  0  0  0  0  0  0  0  0  0  0
   32.3088  -22.6858   35.7540 C   0  0  0  0  0  0  0  0  0  0  0  0
   32.7969  -21.5595   36.6806 C   0  0  0  0  0  0  0  0  0  0  0  0
   29.9234  -22.3134   35.6461 N   0  0  0  0  0  0  0  0  0  0  0  0
   29.1355  -23.4804   35.5684 C   0  0  0  0  0  0  0  0  0  0  0  0
   29.5153  -24.4583   34.8446 O   0  0  0  0  0  0  0  0  0  0  0  0
   29.6107  -21.5215   36.2329 H   0  0  0  0  0  0  0  0  0  0  0  0
   27.8699  -23.5869   36.3166 C   0  0  0  0  0  0  0  0  0  0  0  0
   27.8026  -23.1823   37.7220 C   0  0  0  0  0  0  0  0  0  0  0  0
   27.9540  -24.6408   37.4390 C   0  0  0  0  0  0  0  0  0  0  0  0
   37.0266  -17.3756   35.6333 N   0  0  0  0  0  0  0  0  0  0  0  0
   37.0186  -17.3322   34.5914 H   0  0  0  0  0  0  0  0  0  0  0  0
   36.4225  -16.2786   36.2809 C   0  0  0  0  0  0  0  0  0  0  0  0
   37.0595  -15.4745   37.2352 C   0  0  0  0  0  0  0  0  0  0  0  0
   36.4194  -14.4202   37.8338 C   0  0  0  0  0  0  0  0  0  0  0  0
   35.1176  -14.1438   37.4892 C   0  0  0  0  0  0  0  0  0  0  0  0
   34.4761  -14.8951   36.5783 N   0  0  0  0  0  0  0  0  0  0  0  0
   35.1027  -15.9191   35.9982 C   0  0  0  0  0  0  0  0  0  0  0  0
 16 17  3  0  0  0
 17  7  1  0  0  0
  7  8  1  0  0  0
  8  9  2  0  0  0
  9 10  1  0  0  0
 10 11  1  0  0  0
 11  1  1  0  0  0
  1  2  2  0  0  0
  2  3  1  0  0  0
  3 35  1  0  0  0
 35 37  1  0  0  0
 37 38  2  0  0  0
 38 39  1  0  0  0
 39 40  2  0  0  0
 40 41  1  0  0  0
 41 42  2  0  0  0
  3  4  2  0  0  0
  4 18  1  0  0  0
 18 19  2  0  0  0
 18 20  1  0  0  0
 20 22  1  0  0  0
 22 23  1  0  0  0
 23 24  1  0  0  0
 24 25  1  0  0  0
 25 28  1  0  0  0
 28 29  1  0  0  0
 29 30  2  0  0  0
 29 32  1  0  0  0
 32 33  1  0  0  0
 33 34  1  0  0  0
 25 26  1  0  0  0
 26 27  1  0  0  0
  4  5  1  0  0  0
  5  6  2  0  0  0
 11 12  2  0  0  0
 12 13  1  0  0  0
 13 14  2  0  0  0
 14 15  1  0  0  0
 15  7  2  0  0  0
 14 10  1  0  0  0
  6  1  1  0  0  0
 42 37  1  0  0  0
 27 22  1  0  0  0
 34 32  1  0  0  0
 35 36  1  0  0  0
 20 21  1  0  0  0
 28 31  1  0  0  0
M  END
> <minimizedAffinity>
-6.53259

> <CNNscore>
0.2951980233

> <CNNaffinity>
6.1325559616

> <CNN_VS>
1.8103183508

> <CNNaffinity_variance>
0.0195601434

$$$$
[H]c1nc([H])c(N([H])c2c([H])c(-c3c([H])c([H])c4c([H])c(C#N)c([H])nn34)nc([H])c2C(=O)N([H])[C@]2([H])C([H])([H])C([H])([H])[C@@]([H])(N([H])C(=O)C3([H])C([H])([H])C3([H])[H])C([H])([H])C2([H])[H])c([H])c1[H]


 42 47  0  0  0  0  0  0  0  0999 V2000
   39.4672  -20.8598   38.5577 C   0  0  0  0  0  0  0  0  0  0  0  0
   38.7286  -20.3954   37.5107 C   0  0  0  0  0  0  0  0  0  0  0  0
   37.5680  -20.9673   36.9969 C   0  0  0  0  0  0  0  0  0  0  0  0
   37.1283  -22.1343   37.6299 C   0  0  0  0  0  0  0  0  0  0  0  0
   37.8802  -22.6249   38.7076 C   0  0  0  0  0  0  0  0  0  0  0  0
   38.9850  -22.0061   39.1322 N   0  0  0  0  0  0  0  0  0  0  0  0
   42.1325  -19.4060   42.7861 C   0  0  0  0  0  0  0  0  0  0  0  0
   40.9046  -20.0072   42.6882 C   0  0  0  0  0  0  0  0  0  0  0  0
   40.4238  -20.2898   41.4760 N   0  0  0  0  0  0  0  0  0  0  0  0
   41.0621  -20.0252   40.3474 N   0  0  0  0  0  0  0  0  0  0  0  0
   40.6794  -20.2589   39.0977 C   0  0  0  0  0  0  0  0  0  0  0  0
   41.7202  -19.7844   38.2884 C   0  0  0  0  0  0  0  0  0  0  0  0
   42.7048  -19.2754   39.0979 C   0  0  0  0  0  0  0  0  0  0  0  0
   42.2673  -19.4376   40.4118 C   0  0  0  0  0  0  0  0  0  0  0  0
   42.8224  -19.1184   41.6285 C   0  0  0  0  0  0  0  0  0  0  0  0
   43.0828  -18.8312   45.1253 N   0  0  0  0  0  0  0  0  0  0  0  0
   42.6578  -19.0923   44.0791 C   0  0  0  0  0  0  0  0  0  0  0  0
   35.8938  -22.7801   37.2686 C   0  0  0  0  0  0  0  0  0  0  0  0
   35.9213  -23.9610   36.7756 O   0  0  0  0  0  0  0  0  0  0  0  0
   34.6258  -22.1897   37.4257 N   0  0  0  0  0  0  0  0  0  0  0  0
   34.5489  -21.2385   37.8292 H   0  0  0  0  0  0  0  0  0  0  0  0
   33.4535  -22.9477   37.0157 C   0  0  0  0  0  0  0  0  0  0  0  0
   32.7226  -23.3341   38.3054 C   0  0  0  0  0  0  0  0  0  0  0  0
   31.3769  -23.9494   37.9390 C   0  0  0  0  0  0  0  0  0  0  0  0
   30.5085  -22.7707   37.4749 C   0  0  0  0  0  0  0  0  0  0  0  0
   31.3396  -21.6828   36.8888 C   0  0  0  0  0  0  0  0  0  0  0  0
   32.5296  -22.2465   36.0942 C   0  0  0  0  0  0  0  0  0  0  0  0
   29.5894  -23.2976   36.4766 N   0  0  0  0  0  0  0  0  0  0  0  0
   28.2025  -23.2841   36.7319 C   0  0  0  0  0  0  0  0  0  0  0  0
   27.7621  -22.8188   37.8337 O   0  0  0  0  0  0  0  0  0  0  0  0
   29.9426  -23.6777   35.5822 H   0  0  0  0  0  0  0  0  0  0  0  0
   27.2475  -23.8042   35.7367 C   0  0  0  0  0  0  0  0  0  0  0  0
   25.9973  -24.4333   36.1664 C   0  0  0  0  0  0  0  0  0  0  0  0
   27.1275  -25.3399   35.8047 C   0  0  0  0  0  0  0  0  0  0  0  0
   36.9880  -20.4484   35.8385 N   0  0  0  0  0  0  0  0  0  0  0  0
   37.0451  -20.9644   34.9341 H   0  0  0  0  0  0  0  0  0  0  0  0
   36.3432  -19.1964   35.7716 C   0  0  0  0  0  0  0  0  0  0  0  0
   37.0032  -17.9761   35.5767 C   0  0  0  0  0  0  0  0  0  0  0  0
   36.3219  -16.7876   35.5221 C   0  0  0  0  0  0  0  0  0  0  0  0
   34.9544  -16.7923   35.6625 C   0  0  0  0  0  0  0  0  0  0  0  0
   34.2894  -17.9447   35.8519 N   0  0  0  0  0  0  0  0  0  0  0  0
   34.9562  -19.0982   35.9036 C   0  0  0  0  0  0  0  0  0  0  0  0
 16 17  3  0  0  0
 17  7  1  0  0  0
  7  8  1  0  0  0
  8  9  2  0  0  0
  9 10  1  0  0  0
 10 11  1  0  0  0
 11  1  1  0  0  0
  1  2  2  0  0  0
  2  3  1  0  0  0
  3 35  1  0  0  0
 35 37  1  0  0  0
 37 38  2  0  0  0
 38 39  1  0  0  0
 39 40  2  0  0  0
 40 41  1  0  0  0
 41 42  2  0  0  0
  3  4  2  0  0  0
  4 18  1  0  0  0
 18 19  2  0  0  0
 18 20  1  0  0  0
 20 22  1  0  0  0
 22 23  1  0  0  0
 23 24  1  0  0  0
 24 25  1  0  0  0
 25 28  1  0  0  0
 28 29  1  0  0  0
 29 30  2  0  0  0
 29 32  1  0  0  0
 32 33  1  0  0  0
 33 34  1  0  0  0
 25 26  1  0  0  0
 26 27  1  0  0  0
  4  5  1  0  0  0
  5  6  2  0  0  0
 11 12  2  0  0  0
 12 13  1  0  0  0
 13 14  2  0  0  0
 14 15  1  0  0  0
 15  7  2  0  0  0
 14 10  1  0  0  0
  6  1  1  0  0  0
 42 37  1  0  0  0
 27 22  1  0  0  0
 34 32  1  0  0  0
 35 36  1  0  0  0
 20 21  1  0  0  0
 28 31  1  0  0  0
M  END
> <minimizedAffinity>
-5.40868

> <CNNscore>
0.2862113118

> <CNNaffinity>
5.7379751205

> <CNN_VS>
1.6422734261

> <CNNaffinity_variance>
0.0042887675

$$$$
[H]c1nc([H])c(N([H])c2c([H])c(-c3c([H])c([H])c4c([H])c(C#N)c([H])nn34)nc([H])c2C(=O)N([H])[C@]2([H])C([H])([H])C([H])([H])[C@@]([H])(N([H])C(=O)C3([H])C([H])([H])C3([H])[H])C([H])([H])C2([H])[H])c([H])c1[H]


 42 47  0  0  0  0  0  0  0  0999 V2000
   36.5862  -18.3486   36.6753 C   0  0  0  0  0  0  0  0  0  0  0  0
   36.4881  -19.4677   37.4470 C   0  0  0  0  0  0  0  0  0  0  0  0
   37.5298  -20.3147   37.8149 C   0  0  0  0  0  0  0  0  0  0  0  0
   38.7981  -19.9686   37.3376 C   0  0  0  0  0  0  0  0  0  0  0  0
   38.9133  -18.8204   36.5401 C   0  0  0  0  0  0  0  0  0  0  0  0
   37.8534  -18.0661   36.2382 N   0  0  0  0  0  0  0  0  0  0  0  0
   34.4681  -13.6064   37.0240 C   0  0  0  0  0  0  0  0  0  0  0  0
   35.6229  -14.0931   37.5792 C   0  0  0  0  0  0  0  0  0  0  0  0
   35.9646  -15.3607   37.3404 N   0  0  0  0  0  0  0  0  0  0  0  0
   35.2536  -16.1897   36.5931 N   0  0  0  0  0  0  0  0  0  0  0  0
   35.4965  -17.4603   36.2937 C   0  0  0  0  0  0  0  0  0  0  0  0
   34.4329  -17.8663   35.4768 C   0  0  0  0  0  0  0  0  0  0  0  0
   33.5778  -16.8051   35.3144 C   0  0  0  0  0  0  0  0  0  0  0  0
   34.1181  -15.7409   36.0352 C   0  0  0  0  0  0  0  0  0  0  0  0
   33.7062  -14.4452   36.2400 C   0  0  0  0  0  0  0  0  0  0  0  0
   33.7816  -11.1507   37.4749 N   0  0  0  0  0  0  0  0  0  0  0  0
   34.0867  -12.2510   37.2762 C   0  0  0  0  0  0  0  0  0  0  0  0
   39.9809  -20.6965   37.7156 C   0  0  0  0  0  0  0  0  0  0  0  0
   40.2076  -21.8438   37.1956 O   0  0  0  0  0  0  0  0  0  0  0  0
   40.9311  -20.2216   38.6390 N   0  0  0  0  0  0  0  0  0  0  0  0
   40.7983  -19.2940   39.0810 H   0  0  0  0  0  0  0  0  0  0  0  0
   42.0828  -21.0585   38.9395 C   0  0  0  0  0  0  0  0  0  0  0  0
   43.2893  -20.1167   39.0040 C   0  0  0  0  0  0  0  0  0  0  0  0
   44.4921  -20.8980   39.5203 C   0  0  0  0  0  0  0  0  0  0  0  0
   44.2251  -21.1038   41.0188 C   0  0  0  0  0  0  0  0  0  0  0  0
   42.7649  -21.1468   41.3084 C   0  0  0  0  0  0  0  0  0  0  0  0
   41.9869  -21.8535   40.1857 C   0  0  0  0  0  0  0  0  0  0  0  0
   44.8498  -22.3668   41.3842 N   0  0  0  0  0  0  0  0  0  0  0  0
   45.4661  -22.4989   42.6457 C   0  0  0  0  0  0  0  0  0  0  0  0
   45.4793  -21.5138   43.4544 O   0  0  0  0  0  0  0  0  0  0  0  0
   44.8430  -23.1677   40.7302 H   0  0  0  0  0  0  0  0  0  0  0  0
   46.1003  -23.7679   43.0459 C   0  0  0  0  0  0  0  0  0  0  0  0
   45.7752  -25.0126   42.3469 C   0  0  0  0  0  0  0  0  0  0  0  0
   45.0789  -24.7565   43.6431 C   0  0  0  0  0  0  0  0  0  0  0  0
   37.2578  -21.4958   38.5065 N   0  0  0  0  0  0  0  0  0  0  0  0
   37.6413  -21.6564   39.4629 H   0  0  0  0  0  0  0  0  0  0  0  0
   36.5135  -22.5683   37.9742 C   0  0  0  0  0  0  0  0  0  0  0  0
   35.1839  -22.8531   38.3121 C   0  0  0  0  0  0  0  0  0  0  0  0
   34.5106  -23.9132   37.7621 C   0  0  0  0  0  0  0  0  0  0  0  0
   35.1565  -24.7192   36.8549 C   0  0  0  0  0  0  0  0  0  0  0  0
   36.4320  -24.4755   36.5089 N   0  0  0  0  0  0  0  0  0  0  0  0
   37.0827  -23.4429   37.0458 C   0  0  0  0  0  0  0  0  0  0  0  0
 16 17  3  0  0  0
 17  7  1  0  0  0
  7  8  1  0  0  0
  8  9  2  0  0  0
  9 10  1  0  0  0
 10 11  1  0  0  0
 11  1  1  0  0  0
  1  2  2  0  0  0
  2  3  1  0  0  0
  3 35  1  0  0  0
 35 37  1  0  0  0
 37 38  2  0  0  0
 38 39  1  0  0  0
 39 40  2  0  0  0
 40 41  1  0  0  0
 41 42  2  0  0  0
  3  4  2  0  0  0
  4 18  1  0  0  0
 18 19  2  0  0  0
 18 20  1  0  0  0
 20 22  1  0  0  0
 22 23  1  0  0  0
 23 24  1  0  0  0
 24 25  1  0  0  0
 25 28  1  0  0  0
 28 29  1  0  0  0
 29 30  2  0  0  0
 29 32  1  0  0  0
 32 33  1  0  0  0
 33 34  1  0  0  0
 25 26  1  0  0  0
 26 27  1  0  0  0
  4  5  1  0  0  0
  5  6  2  0  0  0
 11 12  2  0  0  0
 12 13  1  0  0  0
 13 14  2  0  0  0
 14 15  1  0  0  0
 15  7  2  0  0  0
 14 10  1  0  0  0
  6  1  1  0  0  0
 42 37  1  0  0  0
 27 22  1  0  0  0
 34 32  1  0  0  0
 35 36  1  0  0  0
 20 21  1  0  0  0
 28 31  1  0  0  0
M  END
> <minimizedAffinity>
-5.87311

> <CNNscore>
0.2432855368

> <CNNaffinity>
6.1343169212

> <CNN_VS>
1.4923906326

> <CNNaffinity_variance>
0.1942663491

$$$$
[H]c1nc([H])c(N([H])c2c([H])c(-c3c([H])c([H])c4c([H])c(C#N)c([H])nn34)nc([H])c2C(=O)N([H])[C@]2([H])C([H])([H])C([H])([H])[C@@]([H])(N([H])C(=O)C3([H])C([H])([H])C3([H])[H])C([H])([H])C2([H])[H])c([H])c1[H]


 42 47  0  0  0  0  0  0  0  0999 V2000
   36.6435  -18.3410   36.5629 C   0  0  0  0  0  0  0  0  0  0  0  0
   36.5872  -19.4130   37.4025 C   0  0  0  0  0  0  0  0  0  0  0  0
   37.6441  -20.2496   37.7505 C   0  0  0  0  0  0  0  0  0  0  0  0
   38.8812  -19.9459   37.1730 C   0  0  0  0  0  0  0  0  0  0  0  0
   38.9531  -18.8465   36.3049 C   0  0  0  0  0  0  0  0  0  0  0  0
   37.8817  -18.0985   36.0292 N   0  0  0  0  0  0  0  0  0  0  0  0
   34.4383  -13.6487   37.0281 C   0  0  0  0  0  0  0  0  0  0  0  0
   35.6012  -14.1282   37.5728 C   0  0  0  0  0  0  0  0  0  0  0  0
   35.9663  -15.3828   37.3025 N   0  0  0  0  0  0  0  0  0  0  0  0
   35.2717  -16.2054   36.5331 N   0  0  0  0  0  0  0  0  0  0  0  0
   35.5382  -17.4633   36.2020 C   0  0  0  0  0  0  0  0  0  0  0  0
   34.4833  -17.8679   35.3733 C   0  0  0  0  0  0  0  0  0  0  0  0
   33.6091  -16.8187   35.2363 C   0  0  0  0  0  0  0  0  0  0  0  0
   34.1288  -15.7635   35.9848 C   0  0  0  0  0  0  0  0  0  0  0  0
   33.6930  -14.4812   36.2217 C   0  0  0  0  0  0  0  0  0  0  0  0
   33.7063  -11.2182   37.5398 N   0  0  0  0  0  0  0  0  0  0  0  0
   34.0318  -12.3073   37.3139 C   0  0  0  0  0  0  0  0  0  0  0  0
   40.0804  -20.6647   37.5150 C   0  0  0  0  0  0  0  0  0  0  0  0
   40.2888  -21.8206   37.0064 O   0  0  0  0  0  0  0  0  0  0  0  0
   41.0663  -20.1717   38.3902 N   0  0  0  0  0  0  0  0  0  0  0  0
   40.9492  -19.2367   38.8209 H   0  0  0  0  0  0  0  0  0  0  0  0
   42.2316  -21.0008   38.6580 C   0  0  0  0  0  0  0  0  0  0  0  0
   43.4171  -20.0400   38.7928 C   0  0  0  0  0  0  0  0  0  0  0  0
   44.6296  -20.8250   39.2799 C   0  0  0  0  0  0  0  0  0  0  0  0
   44.3483  -21.1220   40.7604 C   0  0  0  0  0  0  0  0  0  0  0  0
   42.8859  -21.2114   41.0270 C   0  0  0  0  0  0  0  0  0  0  0  0
   42.1370  -21.8681   39.8552 C   0  0  0  0  0  0  0  0  0  0  0  0
   44.9949  -22.3910   41.0613 N   0  0  0  0  0  0  0  0  0  0  0  0
   45.5981  -22.5829   42.3215 C   0  0  0  0  0  0  0  0  0  0  0  0
   45.5804  -21.6460   43.1854 O   0  0  0  0  0  0  0  0  0  0  0  0
   45.0132  -23.1530   40.3625 H   0  0  0  0  0  0  0  0  0  0  0  0
   46.2540  -23.8597   42.6570 C   0  0  0  0  0  0  0  0  0  0  0  0
   45.9325  -25.0774   41.9105 C   0  0  0  0  0  0  0  0  0  0  0  0
   45.2542  -24.8858   43.2271 C   0  0  0  0  0  0  0  0  0  0  0  0
   37.4086  -21.3862   38.5251 N   0  0  0  0  0  0  0  0  0  0  0  0
   37.1942  -22.3036   38.0780 H   0  0  0  0  0  0  0  0  0  0  0  0
   37.3830  -21.3890   39.9347 C   0  0  0  0  0  0  0  0  0  0  0  0
   38.5229  -21.4579   40.7465 C   0  0  0  0  0  0  0  0  0  0  0  0
   38.4357  -21.4588   42.1147 C   0  0  0  0  0  0  0  0  0  0  0  0
   37.1970  -21.3905   42.7070 C   0  0  0  0  0  0  0  0  0  0  0  0
   36.0828  -21.3244   41.9587 N   0  0  0  0  0  0  0  0  0  0  0  0
   36.1725  -21.3231   40.6283 C   0  0  0  0  0  0  0  0  0  0  0  0
 16 17  3  0  0  0
 17  7  1  0  0  0
  7  8  1  0  0  0
  8  9  2  0  0  0
  9 10  1  0  0  0
 10 11  1  0  0  0
 11  1  1  0  0  0
  1  2  2  0  0  0
  2  3  1  0  0  0
  3 35  1  0  0  0
 35 37  1  0  0  0
 37 38  2  0  0  0
 38 39  1  0  0  0
 39 40  2  0  0  0
 40 41  1  0  0  0
 41 42  2  0  0  0
  3  4  2  0  0  0
  4 18  1  0  0  0
 18 19  2  0  0  0
 18 20  1  0  0  0
 20 22  1  0  0  0
 22 23  1  0  0  0
 23 24  1  0  0  0
 24 25  1  0  0  0
 25 28  1  0  0  0
 28 29  1  0  0  0
 29 30  2  0  0  0
 29 32  1  0  0  0
 32 33  1  0  0  0
 33 34  1  0  0  0
 25 26  1  0  0  0
 26 27  1  0  0  0
  4  5  1  0  0  0
  5  6  2  0  0  0
 11 12  2  0  0  0
 12 13  1  0  0  0
 13 14  2  0  0  0
 14 15  1  0  0  0
 15  7  2  0  0  0
 14 10  1  0  0  0
  6  1  1  0  0  0
 42 37  1  0  0  0
 27 22  1  0  0  0
 34 32  1  0  0  0
 35 36  1  0  0  0
 20 21  1  0  0  0
 28 31  1  0  0  0
M  END
> <minimizedAffinity>
-6.15561

> <CNNscore>
0.2386579812

> <CNNaffinity>
6.0576181412

> <CNN_VS>
1.4456988573

> <CNNaffinity_variance>
0.0470168740

$$$$
[H]c1nc([H])c(N([H])c2c([H])c(-c3c([H])c([H])c4c([H])c(C#N)c([H])nn34)nc([H])c2C(=O)N([H])[C@]2([H])C([H])([H])C([H])([H])[C@@]([H])(N([H])C(=O)C3([H])C([H])([H])C3([H])[H])C([H])([H])C2([H])[H])c([H])c1[H]


 42 47  0  0  0  0  0  0  0  0999 V2000
   37.1282  -20.8434   38.1169 C   0  0  0  0  0  0  0  0  0  0  0  0
   38.0787  -20.1296   37.4501 C   0  0  0  0  0  0  0  0  0  0  0  0
   37.8866  -18.9360   36.7599 C   0  0  0  0  0  0  0  0  0  0  0  0
   36.5822  -18.4312   36.7608 C   0  0  0  0  0  0  0  0  0  0  0  0
   35.5934  -19.1569   37.4413 C   0  0  0  0  0  0  0  0  0  0  0  0
   35.8725  -20.2972   38.0780 N   0  0  0  0  0  0  0  0  0  0  0  0
   40.3640  -24.7370   39.3278 C   0  0  0  0  0  0  0  0  0  0  0  0
   40.5757  -23.6341   38.5418 C   0  0  0  0  0  0  0  0  0  0  0  0
   39.5797  -22.7609   38.3805 N   0  0  0  0  0  0  0  0  0  0  0  0
   38.3859  -22.8903   38.9364 N   0  0  0  0  0  0  0  0  0  0  0  0
   37.3303  -22.0903   38.8424 C   0  0  0  0  0  0  0  0  0  0  0  0
   36.3306  -22.6904   39.6194 C   0  0  0  0  0  0  0  0  0  0  0  0
   36.8335  -23.8476   40.1596 C   0  0  0  0  0  0  0  0  0  0  0  0
   38.1493  -23.9599   39.7124 C   0  0  0  0  0  0  0  0  0  0  0  0
   39.1311  -24.8995   39.9213 C   0  0  0  0  0  0  0  0  0  0  0  0
   42.2732  -26.4569   39.6466 N   0  0  0  0  0  0  0  0  0  0  0  0
   41.4212  -25.6842   39.5050 C   0  0  0  0  0  0  0  0  0  0  0  0
   36.2551  -17.1600   36.1703 C   0  0  0  0  0  0  0  0  0  0  0  0
   36.6412  -16.9013   34.9777 O   0  0  0  0  0  0  0  0  0  0  0  0
   35.5197  -16.1566   36.8287 N   0  0  0  0  0  0  0  0  0  0  0  0
   35.1762  -16.3206   37.7923 H   0  0  0  0  0  0  0  0  0  0  0  0
   35.2604  -14.9116   36.1218 C   0  0  0  0  0  0  0  0  0  0  0  0
   33.9518  -14.3595   36.6957 C   0  0  0  0  0  0  0  0  0  0  0  0
   33.7318  -12.9543   36.1472 C   0  0  0  0  0  0  0  0  0  0  0  0
   34.7486  -12.0707   36.8851 C   0  0  0  0  0  0  0  0  0  0  0  0
   35.9566  -12.8474   37.2790 C   0  0  0  0  0  0  0  0  0  0  0  0
   36.3300  -13.8908   36.2126 C   0  0  0  0  0  0  0  0  0  0  0  0
   35.1132  -11.0002   35.9686 N   0  0  0  0  0  0  0  0  0  0  0  0
   34.7580   -9.6704   36.2756 C   0  0  0  0  0  0  0  0  0  0  0  0
   34.1160   -9.4135   37.3463 O   0  0  0  0  0  0  0  0  0  0  0  0
   35.6323  -11.2045   35.0980 H   0  0  0  0  0  0  0  0  0  0  0  0
   35.1200   -8.5650   35.3701 C   0  0  0  0  0  0  0  0  0  0  0  0
   34.7857   -7.1824   35.7166 C   0  0  0  0  0  0  0  0  0  0  0  0
   33.8740   -7.8866   34.7662 C   0  0  0  0  0  0  0  0  0  0  0  0
   38.9308  -18.3833   36.0173 N   0  0  0  0  0  0  0  0  0  0  0  0
   39.1056  -17.3553   36.0226 H   0  0  0  0  0  0  0  0  0  0  0  0
   39.7814  -19.1289   35.1757 C   0  0  0  0  0  0  0  0  0  0  0  0
   39.5224  -19.3954   33.8249 C   0  0  0  0  0  0  0  0  0  0  0  0
   40.3875  -20.1294   33.0552 C   0  0  0  0  0  0  0  0  0  0  0  0
   41.5401  -20.6179   33.6233 C   0  0  0  0  0  0  0  0  0  0  0  0
   41.8194  -20.3821   34.9164 N   0  0  0  0  0  0  0  0  0  0  0  0
   40.9755  -19.6670   35.6610 C   0  0  0  0  0  0  0  0  0  0  0  0
 16 17  3  0  0  0
 17  7  1  0  0  0
  7  8  1  0  0  0
  8  9  2  0  0  0
  9 10  1  0  0  0
 10 11  1  0  0  0
 11  1  1  0  0  0
  1  2  2  0  0  0
  2  3  1  0  0  0
  3 35  1  0  0  0
 35 37  1  0  0  0
 37 38  2  0  0  0
 38 39  1  0  0  0
 39 40  2  0  0  0
 40 41  1  0  0  0
 41 42  2  0  0  0
  3  4  2  0  0  0
  4 18  1  0  0  0
 18 19  2  0  0  0
 18 20  1  0  0  0
 20 22  1  0  0  0
 22 23  1  0  0  0
 23 24  1  0  0  0
 24 25  1  0  0  0
 25 28  1  0  0  0
 28 29  1  0  0  0
 29 30  2  0  0  0
 29 32  1  0  0  0
 32 33  1  0  0  0
 33 34  1  0  0  0
 25 26  1  0  0  0
 26 27  1  0  0  0
  4  5  1  0  0  0
  5  6  2  0  0  0
 11 12  2  0  0  0
 12 13  1  0  0  0
 13 14  2  0  0  0
 14 15  1  0  0  0
 15  7  2  0  0  0
 14 10  1  0  0  0
  6  1  1  0  0  0
 42 37  1  0  0  0
 27 22  1  0  0  0
 34 32  1  0  0  0
 35 36  1  0  0  0
 20 21  1  0  0  0
 28 31  1  0  0  0
M  END
> <minimizedAffinity>
-6.70561

> <CNNscore>
0.2352797389

> <CNNaffinity>
6.3195943832

> <CNN_VS>
1.4868725538

> <CNNaffinity_variance>
0.1172155514

$$$$
[H]c1c([H])c([H])c(N2C(N3C([H])([H])C([H])([H])C([H])([H])C([H])([H])C3([H])[H])=Nc3c([H])c([H])c([H])c([H])c3C2([H])C([H])([H])C(=O)N([H])C([H])([H])c2c([H])c([H])c([H])c([H])c2[H])c([H])c1[H]


 34 38  0  0  0  0  0  0  0  0999 V2000
   34.8295  -15.1447   36.8989 C   0  0  0  0  0  0  0  0  0  0  0  0
   36.0276  -14.2994   36.9200 C   0  0  0  0  0  0  0  0  0  0  0  0
   36.0373  -12.9527   36.6187 C   0  0  0  0  0  0  0  0  0  0  0  0
   37.2077  -12.2234   36.8098 C   0  0  0  0  0  0  0  0  0  0  0  0
   38.3573  -12.8031   37.2885 C   0  0  0  0  0  0  0  0  0  0  0  0
   38.3624  -14.1390   37.5864 C   0  0  0  0  0  0  0  0  0  0  0  0
   37.1847  -14.8931   37.3957 C   0  0  0  0  0  0  0  0  0  0  0  0
   37.2821  -16.3080   37.5247 N   0  0  0  0  0  0  0  0  0  0  0  0
   36.2855  -17.0709   37.1800 C   0  0  0  0  0  0  0  0  0  0  0  0
   35.1179  -16.5085   36.6019 N   0  0  0  0  0  0  0  0  0  0  0  0
   36.4456  -18.4796   37.3420 N   0  0  0  0  0  0  0  0  0  0  0  0
   35.5632  -19.1712   38.2327 C   0  0  0  0  0  0  0  0  0  0  0  0
   35.1804  -20.5478   37.6574 C   0  0  0  0  0  0  0  0  0  0  0  0
   36.4887  -21.2642   37.4092 C   0  0  0  0  0  0  0  0  0  0  0  0
   37.2113  -20.5706   36.3081 C   0  0  0  0  0  0  0  0  0  0  0  0
   37.4931  -19.1154   36.5793 C   0  0  0  0  0  0  0  0  0  0  0  0
   34.2888  -17.2884   35.7646 C   0  0  0  0  0  0  0  0  0  0  0  0
   33.0301  -17.7065   36.1344 C   0  0  0  0  0  0  0  0  0  0  0  0
   32.2565  -18.4679   35.2916 C   0  0  0  0  0  0  0  0  0  0  0  0
   32.6915  -18.8510   34.0449 C   0  0  0  0  0  0  0  0  0  0  0  0
   33.9518  -18.4301   33.6794 C   0  0  0  0  0  0  0  0  0  0  0  0
   34.7355  -17.6727   34.5037 C   0  0  0  0  0  0  0  0  0  0  0  0
   33.5654  -14.5884   36.3947 C   0  0  0  0  0  0  0  0  0  0  0  0
   33.3012  -13.3639   38.4199 O   0  0  0  0  0  0  0  0  0  0  0  0
   32.9848  -13.5010   37.2097 C   0  0  0  0  0  0  0  0  0  0  0  0
   32.0505  -12.5686   36.6684 N   0  0  0  0  0  0  0  0  0  0  0  0
   31.7396  -12.6205   35.6673 H   0  0  0  0  0  0  0  0  0  0  0  0
   31.5064  -11.5228   37.4980 C   0  0  0  0  0  0  0  0  0  0  0  0
   30.1527  -11.8380   38.0110 C   0  0  0  0  0  0  0  0  0  0  0  0
   29.0679  -11.1721   37.4992 C   0  0  0  0  0  0  0  0  0  0  0  0
   27.7742  -11.4337   37.9460 C   0  0  0  0  0  0  0  0  0  0  0  0
   27.5694  -12.3839   38.9269 C   0  0  0  0  0  0  0  0  0  0  0  0
   28.6736  -13.0576   39.4438 C   0  0  0  0  0  0  0  0  0  0  0  0
   29.9594  -12.7836   38.9858 C   0  0  0  0  0  0  0  0  0  0  0  0
 24 25  2  0  0  0
 25 23  1  0  0  0
 23  1  1  0  0  0
  1  2  1  0  0  0
  2  3  2  0  0  0
  3  4  1  0  0  0
  4  5  2  0  0  0
  5  6  1  0  0  0
  6  7  2  0  0  0
  7  8  1  0  0  0
  8  9  2  0  0  0
  9 11  1  0  0  0
 11 12  1  0  0  0
 12 13  1  0  0  0
 13 14  1  0  0  0
 14 15  1  0  0  0
 15 16  1  0  0  0
  9 10  1  0  0  0
 10 17  1  0  0  0
 17 18  2  0  0  0
 18 19  1  0  0  0
 19 20  2  0  0  0
 20 21  1  0  0  0
 21 22  2  0  0  0
 25 26  1  0  0  0
 26 28  1  0  0  0
 28 29  1  0  0  0
 29 30  2  0  0  0
 30 31  1  0  0  0
 31 32  2  0  0  0
 32 33  1  0  0  0
 33 34  2  0  0  0
 10  1  1  0  0  0
 22 17  1  0  0  0
 34 29  1  0  0  0
  7  2  1  0  0  0
 16 11  1  0  0  0
 26 27  1  0  0  0
M  END
> <minimizedAffinity>
-7.75921

> <CNNscore>
0.4888302982

> <CNNaffinity>
6.3660559654

> <CNN_VS>
3.1119210720

> <CNNaffinity_variance>
0.0885995775

$$$$
[H]c1c([H])c([H])c(N2C(N3C([H])([H])C([H])([H])C([H])([H])C([H])([H])C3([H])[H])=Nc3c([H])c([H])c([H])c([H])c3C2([H])C([H])([H])C(=O)N([H])C([H])([H])c2c([H])c([H])c([H])c([H])c2[H])c([H])c1[H]


 34 38  0  0  0  0  0  0  0  0999 V2000
   35.5338  -20.1897   36.0759 C   0  0  0  0  0  0  0  0  0  0  0  0
   34.1915  -19.6740   35.7885 C   0  0  0  0  0  0  0  0  0  0  0  0
   33.9232  -18.3843   35.3771 C   0  0  0  0  0  0  0  0  0  0  0  0
   32.6260  -18.0495   34.9981 C   0  0  0  0  0  0  0  0  0  0  0  0
   31.6012  -18.9637   35.0219 C   0  0  0  0  0  0  0  0  0  0  0  0
   31.8531  -20.2448   35.4327 C   0  0  0  0  0  0  0  0  0  0  0  0
   33.1622  -20.5997   35.8229 C   0  0  0  0  0  0  0  0  0  0  0  0
   33.3443  -21.8752   36.4295 N   0  0  0  0  0  0  0  0  0  0  0  0
   34.4823  -22.1866   36.9790 C   0  0  0  0  0  0  0  0  0  0  0  0
   35.5312  -21.2332   37.0468 N   0  0  0  0  0  0  0  0  0  0  0  0
   34.6007  -23.4837   37.5622 N   0  0  0  0  0  0  0  0  0  0  0  0
   35.5041  -24.4220   36.9675 C   0  0  0  0  0  0  0  0  0  0  0  0
   36.2247  -25.2444   38.0524 C   0  0  0  0  0  0  0  0  0  0  0  0
   35.1285  -25.8832   38.8752 C   0  0  0  0  0  0  0  0  0  0  0  0
   34.4033  -24.8148   39.6156 C   0  0  0  0  0  0  0  0  0  0  0  0
   33.7980  -23.7563   38.7302 C   0  0  0  0  0  0  0  0  0  0  0  0
   36.5229  -21.3323   38.0485 C   0  0  0  0  0  0  0  0  0  0  0  0
   37.8414  -21.6177   37.7731 C   0  0  0  0  0  0  0  0  0  0  0  0
   38.7749  -21.7094   38.7775 C   0  0  0  0  0  0  0  0  0  0  0  0
   38.4479  -21.5233   40.0998 C   0  0  0  0  0  0  0  0  0  0  0  0
   37.1271  -21.2379   40.3704 C   0  0  0  0  0  0  0  0  0  0  0  0
   36.1848  -21.1427   39.3852 C   0  0  0  0  0  0  0  0  0  0  0  0
   36.6764  -19.2642   36.0711 C   0  0  0  0  0  0  0  0  0  0  0  0
   35.9612  -18.1950   38.0752 O   0  0  0  0  0  0  0  0  0  0  0  0
   36.5449  -18.0947   36.9649 C   0  0  0  0  0  0  0  0  0  0  0  0
   37.0674  -16.8144   36.6141 N   0  0  0  0  0  0  0  0  0  0  0  0
   37.5665  -16.6549   35.7046 H   0  0  0  0  0  0  0  0  0  0  0  0
   36.9168  -15.6985   37.5140 C   0  0  0  0  0  0  0  0  0  0  0  0
   35.8713  -14.7429   37.0794 C   0  0  0  0  0  0  0  0  0  0  0  0
   34.6843  -15.2233   36.5871 C   0  0  0  0  0  0  0  0  0  0  0  0
   33.6685  -14.3665   36.1677 C   0  0  0  0  0  0  0  0  0  0  0  0
   33.8520  -13.0000   36.2457 C   0  0  0  0  0  0  0  0  0  0  0  0
   35.0588  -12.5166   36.7461 C   0  0  0  0  0  0  0  0  0  0  0  0
   36.0630  -13.3871   37.1606 C   0  0  0  0  0  0  0  0  0  0  0  0
 24 25  2  0  0  0
 25 23  1  0  0  0
 23  1  1  0  0  0
  1  2  1  0  0  0
  2  3  2  0  0  0
  3  4  1  0  0  0
  4  5  2  0  0  0
  5  6  1  0  0  0
  6  7  2  0  0  0
  7  8  1  0  0  0
  8  9  2  0  0  0
  9 11  1  0  0  0
 11 12  1  0  0  0
 12 13  1  0  0  0
 13 14  1  0  0  0
 14 15  1  0  0  0
 15 16  1  0  0  0
  9 10  1  0  0  0
 10 17  1  0  0  0
 17 18  2  0  0  0
 18 19  1  0  0  0
 19 20  2  0  0  0
 20 21  1  0  0  0
 21 22  2  0  0  0
 25 26  1  0  0  0
 26 28  1  0  0  0
 28 29  1  0  0  0
 29 30  2  0  0  0
 30 31  1  0  0  0
 31 32  2  0  0  0
 32 33  1  0  0  0
 33 34  2  0  0  0
 10  1  1  0  0  0
 22 17  1  0  0  0
 34 29  1  0  0  0
  7  2  1  0  0  0
 16 11  1  0  0  0
 26 27  1  0  0  0
M  END
> <minimizedAffinity>
-6.42379

> <CNNscore>
0.4149874151

> <CNNaffinity>
5.2295064926

> <CNN_VS>
2.1701793671

> <CNNaffinity_variance>
0.4227113724

$$$$
[H]c1c([H])c([H])c(N2C(N3C([H])([H])C([H])([H])C([H])([H])C([H])([H])C3([H])[H])=Nc3c([H])c([H])c([H])c([H])c3C2([H])C([H])([H])C(=O)N([H])C([H])([H])c2c([H])c([H])c([H])c([H])c2[H])c([H])c1[H]


 34 38  0  0  0  0  0  0  0  0999 V2000
   36.7276  -17.5072   36.5632 C   0  0  0  0  0  0  0  0  0  0  0  0
   36.4144  -16.0910   36.7789 C   0  0  0  0  0  0  0  0  0  0  0  0
   37.2303  -15.2059   37.4537 C   0  0  0  0  0  0  0  0  0  0  0  0
   36.8952  -13.8547   37.4733 C   0  0  0  0  0  0  0  0  0  0  0  0
   35.7744  -13.3728   36.8423 C   0  0  0  0  0  0  0  0  0  0  0  0
   34.9542  -14.2410   36.1738 C   0  0  0  0  0  0  0  0  0  0  0  0
   35.2783  -15.6144   36.1466 C   0  0  0  0  0  0  0  0  0  0  0  0
   34.3052  -16.5090   35.6168 N   0  0  0  0  0  0  0  0  0  0  0  0
   34.4610  -17.7960   35.7336 C   0  0  0  0  0  0  0  0  0  0  0  0
   35.5636  -18.3227   36.4550 N   0  0  0  0  0  0  0  0  0  0  0  0
   33.4529  -18.6365   35.1736 N   0  0  0  0  0  0  0  0  0  0  0  0
   33.7705  -19.4019   34.0058 C   0  0  0  0  0  0  0  0  0  0  0  0
   33.1232  -20.7977   34.0790 C   0  0  0  0  0  0  0  0  0  0  0  0
   31.6434  -20.5516   34.2689 C   0  0  0  0  0  0  0  0  0  0  0  0
   31.4280  -19.9529   35.6145 C   0  0  0  0  0  0  0  0  0  0  0  0
   32.1723  -18.6620   35.8387 C   0  0  0  0  0  0  0  0  0  0  0  0
   35.4876  -19.6076   37.0380 C   0  0  0  0  0  0  0  0  0  0  0  0
   36.0479  -20.7264   36.4634 C   0  0  0  0  0  0  0  0  0  0  0  0
   35.9479  -21.9598   37.0612 C   0  0  0  0  0  0  0  0  0  0  0  0
   35.2896  -22.1438   38.2541 C   0  0  0  0  0  0  0  0  0  0  0  0
   34.7305  -21.0212   38.8252 C   0  0  0  0  0  0  0  0  0  0  0  0
   34.8196  -19.7867   38.2458 C   0  0  0  0  0  0  0  0  0  0  0  0
   37.9114  -18.0893   37.2126 C   0  0  0  0  0  0  0  0  0  0  0  0
   40.1633  -18.6935   36.7284 O   0  0  0  0  0  0  0  0  0  0  0  0
   38.9979  -18.4954   36.2970 C   0  0  0  0  0  0  0  0  0  0  0  0
   38.7779  -18.6790   34.8995 N   0  0  0  0  0  0  0  0  0  0  0  0
   37.8324  -18.5319   34.4680 H   0  0  0  0  0  0  0  0  0  0  0  0
   39.8655  -19.0745   34.0401 C   0  0  0  0  0  0  0  0  0  0  0  0
   40.0536  -20.5430   33.9852 C   0  0  0  0  0  0  0  0  0  0  0  0
   41.2490  -21.0516   33.5441 C   0  0  0  0  0  0  0  0  0  0  0  0
   41.4768  -22.4247   33.4763 C   0  0  0  0  0  0  0  0  0  0  0  0
   40.4816  -23.3019   33.8600 C   0  0  0  0  0  0  0  0  0  0  0  0
   39.2695  -22.7812   34.3072 C   0  0  0  0  0  0  0  0  0  0  0  0
   39.0590  -21.4064   34.3685 C   0  0  0  0  0  0  0  0  0  0  0  0
 24 25  2  0  0  0
 25 23  1  0  0  0
 23  1  1  0  0  0
  1  2  1  0  0  0
  2  3  2  0  0  0
  3  4  1  0  0  0
  4  5  2  0  0  0
  5  6  1  0  0  0
  6  7  2  0  0  0
  7  8  1  0  0  0
  8  9  2  0  0  0
  9 11  1  0  0  0
 11 12  1  0  0  0
 12 13  1  0  0  0
 13 14  1  0  0  0
 14 15  1  0  0  0
 15 16  1  0  0  0
  9 10  1  0  0  0
 10 17  1  0  0  0
 17 18  2  0  0  0
 18 19  1  0  0  0
 19 20  2  0  0  0
 20 21  1  0  0  0
 21 22  2  0  0  0
 25 26  1  0  0  0
 26 28  1  0  0  0
 28 29  1  0  0  0
 29 30  2  0  0  0
 30 31  1  0  0  0
 31 32  2  0  0  0
 32 33  1  0  0  0
 33 34  2  0  0  0
 10  1  1  0  0  0
 22 17  1  0  0  0
 34 29  1  0  0  0
  7  2  1  0  0  0
 16 11  1  0  0  0
 26 27  1  0  0  0
M  END
> <minimizedAffinity>
-6.77189

> <CNNscore>
0.3848336041

> <CNNaffinity>
5.7780017853

> <CNN_VS>
2.2235691547

> <CNNaffinity_variance>
0.1274954975

$$$$
[H]c1c([H])c([H])c(N2C(N3C([H])([H])C([H])([H])C([H])([H])C([H])([H])C3([H])[H])=Nc3c([H])c([H])c([H])c([H])c3C2([H])C([H])([H])C(=O)N([H])C([H])([H])c2c([H])c([H])c([H])c([H])c2[H])c([H])c1[H]


 34 38  0  0  0  0  0  0  0  0999 V2000
   36.6882  -17.5308   36.5286 C   0  0  0  0  0  0  0  0  0  0  0  0
   36.3767  -16.1153   36.7514 C   0  0  0  0  0  0  0  0  0  0  0  0
   37.2022  -15.2300   37.4141 C   0  0  0  0  0  0  0  0  0  0  0  0
   36.8657  -13.8793   37.4410 C   0  0  0  0  0  0  0  0  0  0  0  0
   35.7342  -13.3980   36.8289 C   0  0  0  0  0  0  0  0  0  0  0  0
   34.9043  -14.2664   36.1726 C   0  0  0  0  0  0  0  0  0  0  0  0
   35.2298  -15.6393   36.1382 C   0  0  0  0  0  0  0  0  0  0  0  0
   34.2495  -16.5345   35.6229 N   0  0  0  0  0  0  0  0  0  0  0  0
   34.4088  -17.8214   35.7354 C   0  0  0  0  0  0  0  0  0  0  0  0
   35.5237  -18.3476   36.4382 N   0  0  0  0  0  0  0  0  0  0  0  0
   33.3929  -18.6626   35.1906 N   0  0  0  0  0  0  0  0  0  0  0  0
   33.6910  -19.4222   34.0140 C   0  0  0  0  0  0  0  0  0  0  0  0
   33.0492  -20.8202   34.0933 C   0  0  0  0  0  0  0  0  0  0  0  0
   31.5724  -20.5791   34.3115 C   0  0  0  0  0  0  0  0  0  0  0  0
   31.3803  -19.9866   35.6634 C   0  0  0  0  0  0  0  0  0  0  0  0
   32.1249  -18.6945   35.8792 C   0  0  0  0  0  0  0  0  0  0  0  0
   35.4589  -19.6335   37.0205 C   0  0  0  0  0  0  0  0  0  0  0  0
   36.0063  -20.7517   36.4326 C   0  0  0  0  0  0  0  0  0  0  0  0
   35.9178  -21.9860   37.0304 C   0  0  0  0  0  0  0  0  0  0  0  0
   35.2842  -22.1716   38.2363 C   0  0  0  0  0  0  0  0  0  0  0  0
   34.7378  -21.0494   38.8206 C   0  0  0  0  0  0  0  0  0  0  0  0
   34.8158  -19.8141   38.2416 C   0  0  0  0  0  0  0  0  0  0  0  0
   37.8831  -18.1121   37.1580 C   0  0  0  0  0  0  0  0  0  0  0  0
   38.6681  -18.8683   35.0407 O   0  0  0  0  0  0  0  0  0  0  0  0
   38.9453  -18.5376   36.2228 C   0  0  0  0  0  0  0  0  0  0  0  0
   40.3165  -18.5920   36.6126 N   0  0  0  0  0  0  0  0  0  0  0  0
   40.6231  -18.3309   37.5819 H   0  0  0  0  0  0  0  0  0  0  0  0
   41.3221  -19.0139   35.6699 C   0  0  0  0  0  0  0  0  0  0  0  0
   42.4698  -18.0801   35.5931 C   0  0  0  0  0  0  0  0  0  0  0  0
   42.7119  -17.2251   36.6383 C   0  0  0  0  0  0  0  0  0  0  0  0
   43.7796  -16.3299   36.6159 C   0  0  0  0  0  0  0  0  0  0  0  0
   44.6191  -16.2954   35.5200 C   0  0  0  0  0  0  0  0  0  0  0  0
   44.3696  -17.1652   34.4610 C   0  0  0  0  0  0  0  0  0  0  0  0
   43.2981  -18.0532   34.5000 C   0  0  0  0  0  0  0  0  0  0  0  0
 24 25  2  0  0  0
 25 23  1  0  0  0
 23  1  1  0  0  0
  1  2  1  0  0  0
  2  3  2  0  0  0
  3  4  1  0  0  0
  4  5  2  0  0  0
  5  6  1  0  0  0
  6  7  2  0  0  0
  7  8  1  0  0  0
  8  9  2  0  0  0
  9 11  1  0  0  0
 11 12  1  0  0  0
 12 13  1  0  0  0
 13 14  1  0  0  0
 14 15  1  0  0  0
 15 16  1  0  0  0
  9 10  1  0  0  0
 10 17  1  0  0  0
 17 18  2  0  0  0
 18 19  1  0  0  0
 19 20  2  0  0  0
 20 21  1  0  0  0
 21 22  2  0  0  0
 25 26  1  0  0  0
 26 28  1  0  0  0
 28 29  1  0  0  0
 29 30  2  0  0  0
 30 31  1  0  0  0
 31 32  2  0  0  0
 32 33  1  0  0  0
 33 34  2  0  0  0
 10  1  1  0  0  0
 22 17  1  0  0  0
 34 29  1  0  0  0
  7  2  1  0  0  0
 16 11  1  0  0  0
 26 27  1  0  0  0
M  END
> <minimizedAffinity>
-7.16718

> <CNNscore>
0.3446899354

> <CNNaffinity>
5.8048319817

> <CNN_VS>
2.0008671284

> <CNNaffinity_variance>
0.1068304628

$$$$
[H]c1c([H])c([H])c(N2C(N3C([H])([H])C([H])([H])C([H])([H])C([H])([H])C3([H])[H])=Nc3c([H])c([H])c([H])c([H])c3C2([H])C([H])([H])C(=O)N([H])C([H])([H])c2c([H])c([H])c([H])c([H])c2[H])c([H])c1[H]


 34 38  0  0  0  0  0  0  0  0999 V2000
   35.1540  -20.0992   36.4485 C   0  0  0  0  0  0  0  0  0  0  0  0
   33.8216  -20.0471   35.8382 C   0  0  0  0  0  0  0  0  0  0  0  0
   33.1027  -21.1554   35.4391 C   0  0  0  0  0  0  0  0  0  0  0  0
   31.7907  -20.9916   35.0029 C   0  0  0  0  0  0  0  0  0  0  0  0
   31.1874  -19.7586   34.9552 C   0  0  0  0  0  0  0  0  0  0  0  0
   31.8912  -18.6508   35.3434 C   0  0  0  0  0  0  0  0  0  0  0  0
   33.2232  -18.7993   35.7856 C   0  0  0  0  0  0  0  0  0  0  0  0
   33.9841  -17.6130   35.9899 N   0  0  0  0  0  0  0  0  0  0  0  0
   35.2644  -17.6822   36.2141 C   0  0  0  0  0  0  0  0  0  0  0  0
   35.9314  -18.9343   36.1838 N   0  0  0  0  0  0  0  0  0  0  0  0
   35.9661  -16.4565   36.4182 N   0  0  0  0  0  0  0  0  0  0  0  0
   36.0289  -15.5157   35.3405 C   0  0  0  0  0  0  0  0  0  0  0  0
   35.9014  -14.0747   35.8696 C   0  0  0  0  0  0  0  0  0  0  0  0
   37.0063  -13.9156   36.8897 C   0  0  0  0  0  0  0  0  0  0  0  0
   36.7055  -14.7864   38.0588 C   0  0  0  0  0  0  0  0  0  0  0  0
   36.5614  -16.2467   37.7161 C   0  0  0  0  0  0  0  0  0  0  0  0
   37.3136  -19.0006   35.8975 C   0  0  0  0  0  0  0  0  0  0  0  0
   37.8195  -18.9208   34.6194 C   0  0  0  0  0  0  0  0  0  0  0  0
   39.1713  -18.9937   34.3829 C   0  0  0  0  0  0  0  0  0  0  0  0
   40.0848  -19.1489   35.3986 C   0  0  0  0  0  0  0  0  0  0  0  0
   39.5736  -19.2283   36.6759 C   0  0  0  0  0  0  0  0  0  0  0  0
   38.2328  -19.1578   36.9306 C   0  0  0  0  0  0  0  0  0  0  0  0
   35.8588  -21.3872   36.5283 C   0  0  0  0  0  0  0  0  0  0  0  0
   36.4029  -21.5728   38.8392 O   0  0  0  0  0  0  0  0  0  0  0  0
   35.8028  -22.0566   37.8446 C   0  0  0  0  0  0  0  0  0  0  0  0
   35.0749  -23.2670   38.0453 N   0  0  0  0  0  0  0  0  0  0  0  0
   34.5500  -23.7288   37.2624 H   0  0  0  0  0  0  0  0  0  0  0  0
   35.0467  -23.8891   39.3453 C   0  0  0  0  0  0  0  0  0  0  0  0
   33.6831  -24.2890   39.7647 C   0  0  0  0  0  0  0  0  0  0  0  0
   32.6373  -23.4241   39.5639 C   0  0  0  0  0  0  0  0  0  0  0  0
   31.3361  -23.7539   39.9381 C   0  0  0  0  0  0  0  0  0  0  0  0
   31.0838  -24.9779   40.5257 C   0  0  0  0  0  0  0  0  0  0  0  0
   32.1486  -25.8529   40.7278 C   0  0  0  0  0  0  0  0  0  0  0  0
   33.4425  -25.5071   40.3477 C   0  0  0  0  0  0  0  0  0  0  0  0
 24 25  2  0  0  0
 25 23  1  0  0  0
 23  1  1  0  0  0
  1  2  1  0  0  0
  2  3  2  0  0  0
  3  4  1  0  0  0
  4  5  2  0  0  0
  5  6  1  0  0  0
  6  7  2  0  0  0
  7  8  1  0  0  0
  8  9  2  0  0  0
  9 11  1  0  0  0
 11 12  1  0  0  0
 12 13  1  0  0  0
 13 14  1  0  0  0
 14 15  1  0  0  0
 15 16  1  0  0  0
  9 10  1  0  0  0
 10 17  1  0  0  0
 17 18  2  0  0  0
 18 19  1  0  0  0
 19 20  2  0  0  0
 20 21  1  0  0  0
 21 22  2  0  0  0
 25 26  1  0  0  0
 26 28  1  0  0  0
 28 29  1  0  0  0
 29 30  2  0  0  0
 30 31  1  0  0  0
 31 32  2  0  0  0
 32 33  1  0  0  0
 33 34  2  0  0  0
 10  1  1  0  0  0
 22 17  1  0  0  0
 34 29  1  0  0  0
  7  2  1  0  0  0
 16 11  1  0  0  0
 26 27  1  0  0  0
M  END
> <minimizedAffinity>
-5.26089

> <CNNscore>
0.3262972236

> <CNNaffinity>
5.4491343498

> <CNN_VS>
1.7780374289

> <CNNaffinity_variance>
0.1201690584

$$$$
[H]c1c([H])c([H])c(N2C(N3C([H])([H])C([H])([H])C([H])([H])C([H])([H])C3([H])[H])=Nc3c([H])c([H])c([H])c([H])c3C2([H])C([H])([H])C(=O)N([H])C([H])([H])c2c([H])c([H])c([H])c([H])c2[H])c([H])c1[H]


 34 38  0  0  0  0  0  0  0  0999 V2000
   36.5457  -19.7066   37.8025 C   0  0  0  0  0  0  0  0  0  0  0  0
   35.8925  -18.8330   36.8224 C   0  0  0  0  0  0  0  0  0  0  0  0
   34.5354  -18.5863   36.7800 C   0  0  0  0  0  0  0  0  0  0  0  0
   34.0474  -17.6294   35.8943 C   0  0  0  0  0  0  0  0  0  0  0  0
   34.8754  -16.9218   35.0575 C   0  0  0  0  0  0  0  0  0  0  0  0
   36.2229  -17.1606   35.0861 C   0  0  0  0  0  0  0  0  0  0  0  0
   36.7333  -18.1295   35.9764 C   0  0  0  0  0  0  0  0  0  0  0  0
   38.1038  -18.4912   35.8390 N   0  0  0  0  0  0  0  0  0  0  0  0
   38.5866  -19.5049   36.4974 C   0  0  0  0  0  0  0  0  0  0  0  0
   37.7374  -20.3077   37.3025 N   0  0  0  0  0  0  0  0  0  0  0  0
   39.9696  -19.8089   36.3204 N   0  0  0  0  0  0  0  0  0  0  0  0
   40.8912  -19.4291   37.3484 C   0  0  0  0  0  0  0  0  0  0  0  0
   41.9678  -20.5138   37.5402 C   0  0  0  0  0  0  0  0  0  0  0  0
   42.6051  -20.7006   36.1816 C   0  0  0  0  0  0  0  0  0  0  0  0
   41.6026  -21.3067   35.2635 C   0  0  0  0  0  0  0  0  0  0  0  0
   40.3431  -20.4945   35.1066 C   0  0  0  0  0  0  0  0  0  0  0  0
   38.0786  -21.6500   37.5829 C   0  0  0  0  0  0  0  0  0  0  0  0
   37.8675  -22.6792   36.6929 C   0  0  0  0  0  0  0  0  0  0  0  0
   38.2100  -23.9727   37.0060 C   0  0  0  0  0  0  0  0  0  0  0  0
   38.7766  -24.3082   38.2129 C   0  0  0  0  0  0  0  0  0  0  0  0
   38.9858  -23.2747   39.1002 C   0  0  0  0  0  0  0  0  0  0  0  0
   38.6518  -21.9825   38.8068 C   0  0  0  0  0  0  0  0  0  0  0  0
   35.7184  -20.4961   38.7266 C   0  0  0  0  0  0  0  0  0  0  0  0
   33.3991  -21.0362   38.7157 O   0  0  0  0  0  0  0  0  0  0  0  0
   34.5108  -21.1043   38.1301 C   0  0  0  0  0  0  0  0  0  0  0  0
   34.5499  -21.7879   36.8786 N   0  0  0  0  0  0  0  0  0  0  0  0
   35.4413  -21.8847   36.3328 H   0  0  0  0  0  0  0  0  0  0  0  0
   33.3493  -22.3685   36.3317 C   0  0  0  0  0  0  0  0  0  0  0  0
   32.4995  -21.3809   35.6263 C   0  0  0  0  0  0  0  0  0  0  0  0
   32.9422  -20.8320   34.4495 C   0  0  0  0  0  0  0  0  0  0  0  0
   32.1797  -19.9012   33.7466 C   0  0  0  0  0  0  0  0  0  0  0  0
   30.9481  -19.5161   34.2385 C   0  0  0  0  0  0  0  0  0  0  0  0
   30.5026  -20.0759   35.4337 C   0  0  0  0  0  0  0  0  0  0  0  0
   31.2775  -21.0046   36.1230 C   0  0  0  0  0  0  0  0  0  0  0  0
 24 25  2  0  0  0
 25 23  1  0  0  0
 23  1  1  0  0  0
  1  2  1  0  0  0
  2  3  2  0  0  0
  3  4  1  0  0  0
  4  5  2  0  0  0
  5  6  1  0  0  0
  6  7  2  0  0  0
  7  8  1  0  0  0
  8  9  2  0  0  0
  9 11  1  0  0  0
 11 12  1  0  0  0
 12 13  1  0  0  0
 13 14  1  0  0  0
 14 15  1  0  0  0
 15 16  1  0  0  0
  9 10  1  0  0  0
 10 17  1  0  0  0
 17 18  2  0  0  0
 18 19  1  0  0  0
 19 20  2  0  0  0
 20 21  1  0  0  0
 21 22  2  0  0  0
 25 26  1  0  0  0
 26 28  1  0  0  0
 28 29  1  0  0  0
 29 30  2  0  0  0
 30 31  1  0  0  0
 31 32  2  0  0  0
 32 33  1  0  0  0
 33 34  2  0  0  0
 10  1  1  0  0  0
 22 17  1  0  0  0
 34 29  1  0  0  0
  7  2  1  0  0  0
 16 11  1  0  0  0
 26 27  1  0  0  0
M  END
> <minimizedAffinity>
-5.30773

> <CNNscore>
0.3095761240

> <CNNaffinity>
5.3434081078

> <CNN_VS>
1.6541916132

> <CNNaffinity_variance>
0.2805764079

$$$$
[H]c1c([H])c([H])c(N2C(N3C([H])([H])C([H])([H])C([H])([H])C([H])([H])C3([H])[H])=Nc3c([H])c([H])c([H])c([H])c3C2([H])C([H])([H])C(=O)N([H])C([H])([H])c2c([H])c([H])c([H])c([H])c2[H])c([H])c1[H]


 34 38  0  0  0  0  0  0  0  0999 V2000
   35.0831  -19.9819   36.3856 C   0  0  0  0  0  0  0  0  0  0  0  0
   33.7479  -19.9014   35.7849 C   0  0  0  0  0  0  0  0  0  0  0  0
   33.0097  -20.9932   35.3756 C   0  0  0  0  0  0  0  0  0  0  0  0
   31.6977  -20.8038   34.9502 C   0  0  0  0  0  0  0  0  0  0  0  0
   31.1127  -19.5613   34.9231 C   0  0  0  0  0  0  0  0  0  0  0  0
   31.8357  -18.4696   35.3217 C   0  0  0  0  0  0  0  0  0  0  0  0
   33.1681  -18.6442   35.7532 C   0  0  0  0  0  0  0  0  0  0  0  0
   33.9482  -17.4723   35.9685 N   0  0  0  0  0  0  0  0  0  0  0  0
   35.2286  -17.5639   36.1833 C   0  0  0  0  0  0  0  0  0  0  0  0
   35.8765  -18.8254   36.1318 N   0  0  0  0  0  0  0  0  0  0  0  0
   35.9501  -16.3517   36.3994 N   0  0  0  0  0  0  0  0  0  0  0  0
   36.0451  -15.4105   35.3246 C   0  0  0  0  0  0  0  0  0  0  0  0
   35.9371  -13.9683   35.8547 C   0  0  0  0  0  0  0  0  0  0  0  0
   37.0307  -13.8315   36.8901 C   0  0  0  0  0  0  0  0  0  0  0  0
   36.6978  -14.6986   38.0533 C   0  0  0  0  0  0  0  0  0  0  0  0
   36.5314  -16.1553   37.7057 C   0  0  0  0  0  0  0  0  0  0  0  0
   37.2556  -18.9085   35.8354 C   0  0  0  0  0  0  0  0  0  0  0  0
   37.7412  -19.0324   34.5531 C   0  0  0  0  0  0  0  0  0  0  0  0
   39.0909  -19.1144   34.3076 C   0  0  0  0  0  0  0  0  0  0  0  0
   40.0222  -19.0778   35.3182 C   0  0  0  0  0  0  0  0  0  0  0  0
   39.5313  -18.9538   36.5999 C   0  0  0  0  0  0  0  0  0  0  0  0
   38.1930  -18.8709   36.8636 C   0  0  0  0  0  0  0  0  0  0  0  0
   35.7688  -21.2813   36.4434 C   0  0  0  0  0  0  0  0  0  0  0  0
   35.3093  -22.0697   38.6430 O   0  0  0  0  0  0  0  0  0  0  0  0
   36.1718  -21.7227   37.7950 C   0  0  0  0  0  0  0  0  0  0  0  0
   37.5401  -21.7749   38.1950 N   0  0  0  0  0  0  0  0  0  0  0  0
   38.3146  -21.5006   37.5417 H   0  0  0  0  0  0  0  0  0  0  0  0
   37.8910  -22.2102   39.5236 C   0  0  0  0  0  0  0  0  0  0  0  0
   39.0471  -21.4740   40.0862 C   0  0  0  0  0  0  0  0  0  0  0  0
   40.1059  -21.1613   39.2717 C   0  0  0  0  0  0  0  0  0  0  0  0
   41.2153  -20.4680   39.7515 C   0  0  0  0  0  0  0  0  0  0  0  0
   41.2590  -20.0825   41.0769 C   0  0  0  0  0  0  0  0  0  0  0  0
   40.1820  -20.4021   41.9004 C   0  0  0  0  0  0  0  0  0  0  0  0
   39.0814  -21.0954   41.4042 C   0  0  0  0  0  0  0  0  0  0  0  0
 24 25  2  0  0  0
 25 23  1  0  0  0
 23  1  1  0  0  0
  1  2  1  0  0  0
  2  3  2  0  0  0
  3  4  1  0  0  0
  4  5  2  0  0  0
  5  6  1  0  0  0
  6  7  2  0  0  0
  7  8  1  0  0  0
  8  9  2  0  0  0
  9 11  1  0  0  0
 11 12  1  0  0  0
 12 13  1  0  0  0
 13 14  1  0  0  0
 14 15  1  0  0  0
 15 16  1  0  0  0
  9 10  1  0  0  0
 10 17  1  0  0  0
 17 18  2  0  0  0
 18 19  1  0  0  0
 19 20  2  0  0  0
 20 21  1  0  0  0
 21 22  2  0  0  0
 25 26  1  0  0  0
 26 28  1  0  0  0
 28 29  1  0  0  0
 29 30  2  0  0  0
 30 31  1  0  0  0
 31 32  2  0  0  0
 32 33  1  0  0  0
 33 34  2  0  0  0
 10  1  1  0  0  0
 22 17  1  0  0  0
 34 29  1  0  0  0
  7  2  1  0  0  0
 16 11  1  0  0  0
 26 27  1  0  0  0
M  END
> <minimizedAffinity>
-6.11502

> <CNNscore>
0.2969859242

> <CNNaffinity>
5.4292182922

> <CNN_VS>
1.6124013662

> <CNNaffinity_variance>
0.1610331684

$$$$
[H]c1c([H])c([H])c(N2C(N3C([H])([H])C([H])([H])C([H])([H])C([H])([H])C3([H])[H])=Nc3c([H])c([H])c([H])c([H])c3C2([H])C([H])([H])C(=O)N([H])C([H])([H])c2c([H])c([H])c([H])c([H])c2[H])c([H])c1[H]


 34 38  0  0  0  0  0  0  0  0999 V2000
   35.9398  -18.6393   36.4838 C   0  0  0  0  0  0  0  0  0  0  0  0
   35.6128  -17.2100   36.5065 C   0  0  0  0  0  0  0  0  0  0  0  0
   36.4507  -16.2259   36.9903 C   0  0  0  0  0  0  0  0  0  0  0  0
   36.0913  -14.8904   36.8305 C   0  0  0  0  0  0  0  0  0  0  0  0
   34.9254  -14.5194   36.2063 C   0  0  0  0  0  0  0  0  0  0  0  0
   34.0832  -15.4858   35.7265 C   0  0  0  0  0  0  0  0  0  0  0  0
   34.4316  -16.8445   35.8828 C   0  0  0  0  0  0  0  0  0  0  0  0
   33.4458  -17.8180   35.5532 N   0  0  0  0  0  0  0  0  0  0  0  0
   33.6332  -19.0715   35.8495 C   0  0  0  0  0  0  0  0  0  0  0  0
   34.7874  -19.4735   36.5706 N   0  0  0  0  0  0  0  0  0  0  0  0
   32.6096  -19.9963   35.4843 N   0  0  0  0  0  0  0  0  0  0  0  0
   32.7674  -20.7512   34.2778 C   0  0  0  0  0  0  0  0  0  0  0  0
   32.2578  -22.1922   34.4684 C   0  0  0  0  0  0  0  0  0  0  0  0
   30.8231  -22.0599   34.9276 C   0  0  0  0  0  0  0  0  0  0  0  0
   30.8114  -21.4607   36.2900 C   0  0  0  0  0  0  0  0  0  0  0  0
   31.4790  -20.1124   36.3738 C   0  0  0  0  0  0  0  0  0  0  0  0
   34.7716  -20.6579   37.3411 C   0  0  0  0  0  0  0  0  0  0  0  0
   35.1493  -21.8836   36.8405 C   0  0  0  0  0  0  0  0  0  0  0  0
   35.1154  -23.0133   37.6225 C   0  0  0  0  0  0  0  0  0  0  0  0
   34.7067  -22.9831   38.9347 C   0  0  0  0  0  0  0  0  0  0  0  0
   34.3296  -21.7541   39.4312 C   0  0  0  0  0  0  0  0  0  0  0  0
   34.3565  -20.6201   38.6691 C   0  0  0  0  0  0  0  0  0  0  0  0
   37.1716  -19.1060   37.1370 C   0  0  0  0  0  0  0  0  0  0  0  0
   38.3755  -20.7376   35.8882 O   0  0  0  0  0  0  0  0  0  0  0  0
   38.2502  -19.5303   36.2203 C   0  0  0  0  0  0  0  0  0  0  0  0
   39.1872  -18.6020   35.6766 N   0  0  0  0  0  0  0  0  0  0  0  0
   39.1450  -17.5791   35.9084 H   0  0  0  0  0  0  0  0  0  0  0  0
   40.2257  -19.0571   34.7866 C   0  0  0  0  0  0  0  0  0  0  0  0
   41.5745  -18.5942   35.1884 C   0  0  0  0  0  0  0  0  0  0  0  0
   41.8309  -18.3379   36.5115 C   0  0  0  0  0  0  0  0  0  0  0  0
   43.0833  -17.9033   36.9409 C   0  0  0  0  0  0  0  0  0  0  0  0
   44.0965  -17.7233   36.0199 C   0  0  0  0  0  0  0  0  0  0  0  0
   43.8318  -17.9846   34.6775 C   0  0  0  0  0  0  0  0  0  0  0  0
   42.5746  -18.4182   34.2661 C   0  0  0  0  0  0  0  0  0  0  0  0
 24 25  2  0  0  0
 25 23  1  0  0  0
 23  1  1  0  0  0
  1  2  1  0  0  0
  2  3  2  0  0  0
  3  4  1  0  0  0
  4  5  2  0  0  0
  5  6  1  0  0  0
  6  7  2  0  0  0
  7  8  1  0  0  0
  8  9  2  0  0  0
  9 11  1  0  0  0
 11 12  1  0  0  0
 12 13  1  0  0  0
 13 14  1  0  0  0
 14 15  1  0  0  0
 15 16  1  0  0  0
  9 10  1  0  0  0
 10 17  1  0  0  0
 17 18  2  0  0  0
 18 19  1  0  0  0
 19 20  2  0  0  0
 20 21  1  0  0  0
 21 22  2  0  0  0
 25 26  1  0  0  0
 26 28  1  0  0  0
 28 29  1  0  0  0
 29 30  2  0  0  0
 30 31  1  0  0  0
 31 32  2  0  0  0
 32 33  1  0  0  0
 33 34  2  0  0  0
 10  1  1  0  0  0
 22 17  1  0  0  0
 34 29  1  0  0  0
  7  2  1  0  0  0
 16 11  1  0  0  0
 26 27  1  0  0  0
M  END
> <minimizedAffinity>
-6.31787

> <CNNscore>
0.2915465534

> <CNNaffinity>
5.3216118813

> <CNN_VS>
1.5514975786

> <CNNaffinity_variance>
0.2216455936

$$$$
[H]c1c([H])c([H])c(N2C(N3C([H])([H])C([H])([H])C([H])([H])C([H])([H])C3([H])[H])=Nc3c([H])c([H])c([H])c([H])c3C2([H])C([H])([H])C(=O)N([H])C([H])([H])c2c([H])c([H])c([H])c([H])c2[H])c([H])c1[H]


 34 38  0  0  0  0  0  0  0  0999 V2000
   34.8084  -15.2965   36.5002 C   0  0  0  0  0  0  0  0  0  0  0  0
   35.9774  -14.4307   36.6850 C   0  0  0  0  0  0  0  0  0  0  0  0
   36.0471  -13.1158   36.2720 C   0  0  0  0  0  0  0  0  0  0  0  0
   37.1548  -12.3512   36.6276 C   0  0  0  0  0  0  0  0  0  0  0  0
   38.1847  -12.8652   37.3771 C   0  0  0  0  0  0  0  0  0  0  0  0
   38.1301  -14.1694   37.7888 C   0  0  0  0  0  0  0  0  0  0  0  0
   37.0152  -14.9589   37.4344 C   0  0  0  0  0  0  0  0  0  0  0  0
   37.0851  -16.3549   37.7070 N   0  0  0  0  0  0  0  0  0  0  0  0
   36.1785  -17.1634   37.2394 C   0  0  0  0  0  0  0  0  0  0  0  0
   35.1511  -16.6757   36.3909 N   0  0  0  0  0  0  0  0  0  0  0  0
   36.3032  -18.5493   37.5562 N   0  0  0  0  0  0  0  0  0  0  0  0
   35.2813  -19.1655   38.3476 C   0  0  0  0  0  0  0  0  0  0  0  0
   34.9941  -20.5936   37.8470 C   0  0  0  0  0  0  0  0  0  0  0  0
   36.3225  -21.3150   37.8883 C   0  0  0  0  0  0  0  0  0  0  0  0
   37.2219  -20.7180   36.8636 C   0  0  0  0  0  0  0  0  0  0  0  0
   37.4607  -19.2409   37.0415 C   0  0  0  0  0  0  0  0  0  0  0  0
   34.5077  -17.5413   35.4779 C   0  0  0  0  0  0  0  0  0  0  0  0
   33.1622  -17.8274   35.5363 C   0  0  0  0  0  0  0  0  0  0  0  0
   32.5753  -18.6786   34.6309 C   0  0  0  0  0  0  0  0  0  0  0  0
   33.2913  -19.2859   33.6267 C   0  0  0  0  0  0  0  0  0  0  0  0
   34.6376  -18.9965   33.5724 C   0  0  0  0  0  0  0  0  0  0  0  0
   35.2388  -18.1528   34.4636 C   0  0  0  0  0  0  0  0  0  0  0  0
   33.6714  -14.8101   35.7049 C   0  0  0  0  0  0  0  0  0  0  0  0
   31.9907  -13.1231   35.7129 O   0  0  0  0  0  0  0  0  0  0  0  0
   32.8197  -13.8032   36.3716 C   0  0  0  0  0  0  0  0  0  0  0  0
   32.8975  -13.5591   37.7750 N   0  0  0  0  0  0  0  0  0  0  0  0
   33.5651  -14.0878   38.3886 H   0  0  0  0  0  0  0  0  0  0  0  0
   32.0495  -12.5667   38.3865 C   0  0  0  0  0  0  0  0  0  0  0  0
   32.3328  -11.1925   37.9107 C   0  0  0  0  0  0  0  0  0  0  0  0
   31.2876  -10.3500   37.6283 C   0  0  0  0  0  0  0  0  0  0  0  0
   31.5010   -9.0477   37.1807 C   0  0  0  0  0  0  0  0  0  0  0  0
   32.7918   -8.5856   37.0144 C   0  0  0  0  0  0  0  0  0  0  0  0
   33.8500   -9.4444   37.3021 C   0  0  0  0  0  0  0  0  0  0  0  0
   33.6185  -10.7426   37.7485 C   0  0  0  0  0  0  0  0  0  0  0  0
 24 25  2  0  0  0
 25 23  1  0  0  0
 23  1  1  0  0  0
  1  2  1  0  0  0
  2  3  2  0  0  0
  3  4  1  0  0  0
  4  5  2  0  0  0
  5  6  1  0  0  0
  6  7  2  0  0  0
  7  8  1  0  0  0
  8  9  2  0  0  0
  9 11  1  0  0  0
 11 12  1  0  0  0
 12 13  1  0  0  0
 13 14  1  0  0  0
 14 15  1  0  0  0
 15 16  1  0  0  0
  9 10  1  0  0  0
 10 17  1  0  0  0
 17 18  2  0  0  0
 18 19  1  0  0  0
 19 20  2  0  0  0
 20 21  1  0  0  0
 21 22  2  0  0  0
 25 26  1  0  0  0
 26 28  1  0  0  0
 28 29  1  0  0  0
 29 30  2  0  0  0
 30 31  1  0  0  0
 31 32  2  0  0  0
 32 33  1  0  0  0
 33 34  2  0  0  0
 10  1  1  0  0  0
 22 17  1  0  0  0
 34 29  1  0  0  0
  7  2  1  0  0  0
 16 11  1  0  0  0
 26 27  1  0  0  0
M  END
> <minimizedAffinity>
-8.05548

> <CNNscore>
0.2906320393

> <CNNaffinity>
6.0661230087

> <CNN_VS>
1.7630096674

> <CNNaffinity_variance>
0.1331536472

$$$$
[H]c1c([H])c([H])c(C([H])(N2C([H])([H])C([H])([H])N(C([H])([H])C#N)C([H])([H])C2([H])[H])C([H])([H])OC([H])([H])c2c([H])c(C(F)(F)F)c([H])c(C(F)(F)F)c2[H])c([H])c1[H]


 33 35  0  0  0  0  0  0  0  0999 V2000
   36.2879  -18.9028   37.6960 C   0  0  0  0  0  0  0  0  0  0  0  0
   36.1879  -18.1937   36.3877 C   0  0  0  0  0  0  0  0  0  0  0  0
   39.5514  -19.1822   34.0593 N   0  0  0  0  0  0  0  0  0  0  0  0
   38.5382  -18.3687   33.4915 C   0  0  0  0  0  0  0  0  0  0  0  0
   37.2006  -18.5619   34.2004 C   0  0  0  0  0  0  0  0  0  0  0  0
   37.3353  -18.3948   35.5996 N   0  0  0  0  0  0  0  0  0  0  0  0
   38.4355  -19.0223   36.2433 C   0  0  0  0  0  0  0  0  0  0  0  0
   39.1690  -19.8742   35.2425 C   0  0  0  0  0  0  0  0  0  0  0  0
   40.4521  -19.8319   33.1825 C   0  0  0  0  0  0  0  0  0  0  0  0
   42.5596  -20.6593   34.5592 N   0  0  0  0  0  0  0  0  0  0  0  0
   41.6167  -20.2998   33.9509 C   0  0  0  0  0  0  0  0  0  0  0  0
   35.8197  -16.7754   36.6252 C   0  0  0  0  0  0  0  0  0  0  0  0
   34.7437  -16.1493   36.0358 C   0  0  0  0  0  0  0  0  0  0  0  0
   34.4582  -14.8152   36.2541 C   0  0  0  0  0  0  0  0  0  0  0  0
   35.2424  -14.0421   37.0774 C   0  0  0  0  0  0  0  0  0  0  0  0
   36.3261  -14.6539   37.6808 C   0  0  0  0  0  0  0  0  0  0  0  0
   36.5995  -15.9904   37.4514 C   0  0  0  0  0  0  0  0  0  0  0  0
   35.0726  -19.2324   38.2906 O   0  0  0  0  0  0  0  0  0  0  0  0
   34.8262  -20.5468   37.8185 C   0  0  0  0  0  0  0  0  0  0  0  0
   33.5101  -20.7338   37.2408 C   0  0  0  0  0  0  0  0  0  0  0  0
   33.0686  -19.8763   36.2089 C   0  0  0  0  0  0  0  0  0  0  0  0
   31.8476  -19.9994   35.6197 C   0  0  0  0  0  0  0  0  0  0  0  0
   30.9963  -20.9939   36.0335 C   0  0  0  0  0  0  0  0  0  0  0  0
   31.4096  -21.8374   37.0373 C   0  0  0  0  0  0  0  0  0  0  0  0
   32.6591  -21.7245   37.6514 C   0  0  0  0  0  0  0  0  0  0  0  0
   31.3794  -19.0917   34.5296 C   0  0  0  0  0  0  0  0  0  0  0  0
   30.0707  -18.7734   34.6597 F   0  0  0  0  0  0  0  0  0  0  0  0
   31.6541  -19.7522   33.3404 F   0  0  0  0  0  0  0  0  0  0  0  0
   32.2108  -17.9827   34.5501 F   0  0  0  0  0  0  0  0  0  0  0  0
   30.4466  -22.9109   37.4418 C   0  0  0  0  0  0  0  0  0  0  0  0
   30.5221  -23.9816   36.5412 F   0  0  0  0  0  0  0  0  0  0  0  0
   30.8469  -23.3600   38.6734 F   0  0  0  0  0  0  0  0  0  0  0  0
   29.1365  -22.4801   37.4631 F   0  0  0  0  0  0  0  0  0  0  0  0
 10 11  3  0  0  0
 11  9  1  0  0  0
  9  3  1  0  0  0
  3  4  1  0  0  0
  4  5  1  0  0  0
  5  6  1  0  0  0
  6  2  1  0  0  0
  2  1  1  0  0  0
  1 18  1  0  0  0
 18 19  1  0  0  0
 19 20  1  0  0  0
 20 21  2  0  0  0
 21 22  1  0  0  0
 22 26  1  0  0  0
 26 27  1  0  0  0
 26 28  1  0  0  0
 26 29  1  0  0  0
 22 23  2  0  0  0
 23 24  1  0  0  0
 24 30  1  0  0  0
 30 31  1  0  0  0
 30 32  1  0  0  0
 30 33  1  0  0  0
 24 25  2  0  0  0
  2 12  1  0  0  0
 12 13  2  0  0  0
 13 14  1  0  0  0
 14 15  2  0  0  0
 15 16  1  0  0  0
 16 17  2  0  0  0
  6  7  1  0  0  0
  7  8  1  0  0  0
  8  3  1  0  0  0
 25 20  1  0  0  0
 17 12  1  0  0  0
M  END
> <minimizedAffinity>
-6.62124

> <CNNscore>
0.3711292744

> <CNNaffinity>
5.1427907944

> <CNN_VS>
1.9086402655

> <CNNaffinity_variance>
0.5882548094

$$$$
[H]c1c([H])c([H])c(C([H])(N2C([H])([H])C([H])([H])N(C([H])([H])C#N)C([H])([H])C2([H])[H])C([H])([H])OC([H])([H])c2c([H])c(C(F)(F)F)c([H])c(C(F)(F)F)c2[H])c([H])c1[H]


 33 35  0  0  0  0  0  0  0  0999 V2000
   37.3866  -17.9073   36.0084 C   0  0  0  0  0  0  0  0  0  0  0  0
   36.0823  -17.4172   36.5404 C   0  0  0  0  0  0  0  0  0  0  0  0
   33.0210  -19.1545   34.2332 N   0  0  0  0  0  0  0  0  0  0  0  0
   32.6932  -18.5778   35.4865 C   0  0  0  0  0  0  0  0  0  0  0  0
   33.9076  -18.5120   36.4087 C   0  0  0  0  0  0  0  0  0  0  0  0
   35.0008  -17.8798   35.7692 N   0  0  0  0  0  0  0  0  0  0  0  0
   35.3001  -18.2562   34.4324 C   0  0  0  0  0  0  0  0  0  0  0  0
   34.4082  -19.4011   34.0334 C   0  0  0  0  0  0  0  0  0  0  0  0
   32.1042  -20.0678   33.6612 C   0  0  0  0  0  0  0  0  0  0  0  0
   32.2862  -22.3826   34.9378 N   0  0  0  0  0  0  0  0  0  0  0  0
   32.2111  -21.3576   34.3619 C   0  0  0  0  0  0  0  0  0  0  0  0
   36.1491  -15.9459   36.7246 C   0  0  0  0  0  0  0  0  0  0  0  0
   35.2576  -15.0576   36.1649 C   0  0  0  0  0  0  0  0  0  0  0  0
   35.3784  -13.6911   36.3297 C   0  0  0  0  0  0  0  0  0  0  0  0
   36.4043  -13.1482   37.0668 C   0  0  0  0  0  0  0  0  0  0  0  0
   37.3083  -14.0245   37.6393 C   0  0  0  0  0  0  0  0  0  0  0  0
   37.1745  -15.3902   37.4642 C   0  0  0  0  0  0  0  0  0  0  0  0
   37.9607  -18.9617   36.7140 O   0  0  0  0  0  0  0  0  0  0  0  0
   39.1050  -19.2846   35.9408 C   0  0  0  0  0  0  0  0  0  0  0  0
   40.3648  -19.0592   36.6211 C   0  0  0  0  0  0  0  0  0  0  0  0
   41.4074  -18.3747   35.9580 C   0  0  0  0  0  0  0  0  0  0  0  0
   42.6126  -18.1253   36.5398 C   0  0  0  0  0  0  0  0  0  0  0  0
   42.8417  -18.5497   37.8252 C   0  0  0  0  0  0  0  0  0  0  0  0
   41.8380  -19.2180   38.4854 C   0  0  0  0  0  0  0  0  0  0  0  0
   40.5961  -19.4812   37.9027 C   0  0  0  0  0  0  0  0  0  0  0  0
   43.7162  -17.4032   35.8384 C   0  0  0  0  0  0  0  0  0  0  0  0
   44.3042  -18.1698   34.8910 F   0  0  0  0  0  0  0  0  0  0  0  0
   44.6014  -17.0055   36.8306 F   0  0  0  0  0  0  0  0  0  0  0  0
   43.1678  -16.2370   35.3276 F   0  0  0  0  0  0  0  0  0  0  0  0
   42.1373  -19.6482   39.8885 C   0  0  0  0  0  0  0  0  0  0  0  0
   43.2840  -20.4532   39.9049 F   0  0  0  0  0  0  0  0  0  0  0  0
   42.4043  -18.5103   40.6045 F   0  0  0  0  0  0  0  0  0  0  0  0
   41.1136  -20.3752   40.4596 F   0  0  0  0  0  0  0  0  0  0  0  0
 10 11  3  0  0  0
 11  9  1  0  0  0
  9  3  1  0  0  0
  3  4  1  0  0  0
  4  5  1  0  0  0
  5  6  1  0  0  0
  6  2  1  0  0  0
  2  1  1  0  0  0
  1 18  1  0  0  0
 18 19  1  0  0  0
 19 20  1  0  0  0
 20 21  2  0  0  0
 21 22  1  0  0  0
 22 26  1  0  0  0
 26 27  1  0  0  0
 26 28  1  0  0  0
 26 29  1  0  0  0
 22 23  2  0  0  0
 23 24  1  0  0  0
 24 30  1  0  0  0
 30 31  1  0  0  0
 30 32  1  0  0  0
 30 33  1  0  0  0
 24 25  2  0  0  0
  2 12  1  0  0  0
 12 13  2  0  0  0
 13 14  1  0  0  0
 14 15  2  0  0  0
 15 16  1  0  0  0
 16 17  2  0  0  0
  6  7  1  0  0  0
  7  8  1  0  0  0
  8  3  1  0  0  0
 25 20  1  0  0  0
 17 12  1  0  0  0
M  END
> <minimizedAffinity>
-7.01828

> <CNNscore>
0.3253136873

> <CNNaffinity>
5.1379837990

> <CNN_VS>
1.6714564562

> <CNNaffinity_variance>
0.5570827723

$$$$
[H]c1c([H])c([H])c(C([H])(N2C([H])([H])C([H])([H])N(C([H])([H])C#N)C([H])([H])C2([H])[H])C([H])([H])OC([H])([H])c2c([H])c(C(F)(F)F)c([H])c(C(F)(F)F)c2[H])c([H])c1[H]


 33 35  0  0  0  0  0  0  0  0999 V2000
   34.4303  -18.4534   35.1922 C   0  0  0  0  0  0  0  0  0  0  0  0
   35.6403  -18.8152   35.9855 C   0  0  0  0  0  0  0  0  0  0  0  0
   38.9666  -19.7939   33.6001 N   0  0  0  0  0  0  0  0  0  0  0  0
   38.6140  -20.6524   34.6722 C   0  0  0  0  0  0  0  0  0  0  0  0
   37.8002  -19.9184   35.7344 C   0  0  0  0  0  0  0  0  0  0  0  0
   36.6901  -19.2547   35.1591 N   0  0  0  0  0  0  0  0  0  0  0  0
   36.9015  -18.5123   33.9664 C   0  0  0  0  0  0  0  0  0  0  0  0
   38.3728  -18.5015   33.6494 C   0  0  0  0  0  0  0  0  0  0  0  0
   40.2748  -19.8940   33.0703 C   0  0  0  0  0  0  0  0  0  0  0  0
   41.8417  -18.1087   34.2443 N   0  0  0  0  0  0  0  0  0  0  0  0
   41.1368  -18.8995   33.7288 C   0  0  0  0  0  0  0  0  0  0  0  0
   35.2531  -19.7483   37.0730 C   0  0  0  0  0  0  0  0  0  0  0  0
   34.5938  -20.9401   36.8678 C   0  0  0  0  0  0  0  0  0  0  0  0
   34.2169  -21.7622   37.9124 C   0  0  0  0  0  0  0  0  0  0  0  0
   34.4842  -21.4260   39.2185 C   0  0  0  0  0  0  0  0  0  0  0  0
   35.1483  -20.2340   39.4447 C   0  0  0  0  0  0  0  0  0  0  0  0
   35.5181  -19.4212   38.3882 C   0  0  0  0  0  0  0  0  0  0  0  0
   33.5295  -17.6049   35.8309 O   0  0  0  0  0  0  0  0  0  0  0  0
   33.6924  -16.3780   35.1383 C   0  0  0  0  0  0  0  0  0  0  0  0
   34.1996  -15.2957   35.9580 C   0  0  0  0  0  0  0  0  0  0  0  0
   35.5638  -15.2724   36.3235 C   0  0  0  0  0  0  0  0  0  0  0  0
   36.1060  -14.2838   37.0864 C   0  0  0  0  0  0  0  0  0  0  0  0
   35.3075  -13.2578   37.5278 C   0  0  0  0  0  0  0  0  0  0  0  0
   33.9771  -13.2649   37.1819 C   0  0  0  0  0  0  0  0  0  0  0  0
   33.4059  -14.2713   36.3996 C   0  0  0  0  0  0  0  0  0  0  0  0
   37.5482  -14.2596   37.4749 C   0  0  0  0  0  0  0  0  0  0  0  0
   38.2408  -13.3125   36.8009 F   0  0  0  0  0  0  0  0  0  0  0  0
   38.0266  -15.5412   37.2406 F   0  0  0  0  0  0  0  0  0  0  0  0
   37.5876  -14.0838   38.8493 F   0  0  0  0  0  0  0  0  0  0  0  0
   33.1548  -12.1165   37.6803 C   0  0  0  0  0  0  0  0  0  0  0  0
   31.9515  -12.0474   36.9656 F   0  0  0  0  0  0  0  0  0  0  0  0
   32.8575  -12.3807   38.9921 F   0  0  0  0  0  0  0  0  0  0  0  0
   33.7885  -10.8993   37.5418 F   0  0  0  0  0  0  0  0  0  0  0  0
 10 11  3  0  0  0
 11  9  1  0  0  0
  9  3  1  0  0  0
  3  4  1  0  0  0
  4  5  1  0  0  0
  5  6  1  0  0  0
  6  2  1  0  0  0
  2  1  1  0  0  0
  1 18  1  0  0  0
 18 19  1  0  0  0
 19 20  1  0  0  0
 20 21  2  0  0  0
 21 22  1  0  0  0
 22 26  1  0  0  0
 26 27  1  0  0  0
 26 28  1  0  0  0
 26 29  1  0  0  0
 22 23  2  0  0  0
 23 24  1  0  0  0
 24 30  1  0  0  0
 30 31  1  0  0  0
 30 32  1  0  0  0
 30 33  1  0  0  0
 24 25  2  0  0  0
  2 12  1  0  0  0
 12 13  2  0  0  0
 13 14  1  0  0  0
 14 15  2  0  0  0
 15 16  1  0  0  0
 16 17  2  0  0  0
  6  7  1  0  0  0
  7  8  1  0  0  0
  8  3  1  0  0  0
 25 20  1  0  0  0
 17 12  1  0  0  0
M  END
> <minimizedAffinity>
-7.33781

> <CNNscore>
0.2955382764

> <CNNaffinity>
5.3591609001

> <CNN_VS>
1.5838371515

> <CNNaffinity_variance>
0.6624608040

$$$$
[H]c1c([H])c([H])c(C([H])(N2C([H])([H])C([H])([H])N(C([H])([H])C#N)C([H])([H])C2([H])[H])C([H])([H])OC([H])([H])c2c([H])c(C(F)(F)F)c([H])c(C(F)(F)F)c2[H])c([H])c1[H]


 33 35  0  0  0  0  0  0  0  0999 V2000
   34.3592  -18.4672   35.1938 C   0  0  0  0  0  0  0  0  0  0  0  0
   35.5482  -18.8542   36.0066 C   0  0  0  0  0  0  0  0  0  0  0  0
   38.8892  -19.8228   33.6376 N   0  0  0  0  0  0  0  0  0  0  0  0
   38.6060  -20.6123   34.7810 C   0  0  0  0  0  0  0  0  0  0  0  0
   37.7664  -19.8451   35.7987 C   0  0  0  0  0  0  0  0  0  0  0  0
   36.6093  -19.2958   35.1960 N   0  0  0  0  0  0  0  0  0  0  0  0
   36.7568  -18.6397   33.9445 C   0  0  0  0  0  0  0  0  0  0  0  0
   38.2196  -18.5677   33.5974 C   0  0  0  0  0  0  0  0  0  0  0  0
   40.1925  -19.8878   33.0906 C   0  0  0  0  0  0  0  0  0  0  0  0
   41.7475  -18.1918   34.4045 N   0  0  0  0  0  0  0  0  0  0  0  0
   41.0649  -18.9507   33.8162 C   0  0  0  0  0  0  0  0  0  0  0  0
   35.1277  -19.7966   37.0736 C   0  0  0  0  0  0  0  0  0  0  0  0
   34.3692  -20.9245   36.8508 C   0  0  0  0  0  0  0  0  0  0  0  0
   33.9662  -21.7554   37.8786 C   0  0  0  0  0  0  0  0  0  0  0  0
   34.3061  -21.4928   39.1847 C   0  0  0  0  0  0  0  0  0  0  0  0
   35.0702  -20.3659   39.4282 C   0  0  0  0  0  0  0  0  0  0  0  0
   35.4650  -19.5432   38.3885 C   0  0  0  0  0  0  0  0  0  0  0  0
   33.4719  -17.5910   35.8137 O   0  0  0  0  0  0  0  0  0  0  0  0
   33.6919  -16.3684   35.1295 C   0  0  0  0  0  0  0  0  0  0  0  0
   34.2773  -15.3259   35.9489 C   0  0  0  0  0  0  0  0  0  0  0  0
   33.4614  -14.2892   36.4537 C   0  0  0  0  0  0  0  0  0  0  0  0
   33.9452  -13.2830   37.2326 C   0  0  0  0  0  0  0  0  0  0  0  0
   35.2805  -13.2593   37.5512 C   0  0  0  0  0  0  0  0  0  0  0  0
   36.0894  -14.2603   37.0679 C   0  0  0  0  0  0  0  0  0  0  0  0
   35.6083  -15.2996   36.2682 C   0  0  0  0  0  0  0  0  0  0  0  0
   33.0833  -12.1854   37.7651 C   0  0  0  0  0  0  0  0  0  0  0  0
   32.7840  -12.3625   39.0728 F   0  0  0  0  0  0  0  0  0  0  0  0
   31.9557  -12.1609   36.9564 F   0  0  0  0  0  0  0  0  0  0  0  0
   33.7539  -10.9974   37.5194 F   0  0  0  0  0  0  0  0  0  0  0  0
   37.5346  -14.1920   37.4552 C   0  0  0  0  0  0  0  0  0  0  0  0
   37.6489  -13.8340   38.8051 F   0  0  0  0  0  0  0  0  0  0  0  0
   38.0465  -15.4545   37.3037 F   0  0  0  0  0  0  0  0  0  0  0  0
   38.2467  -13.2672   36.7204 F   0  0  0  0  0  0  0  0  0  0  0  0
 10 11  3  0  0  0
 11  9  1  0  0  0
  9  3  1  0  0  0
  3  4  1  0  0  0
  4  5  1  0  0  0
  5  6  1  0  0  0
  6  2  1  0  0  0
  2  1  1  0  0  0
  1 18  1  0  0  0
 18 19  1  0  0  0
 19 20  1  0  0  0
 20 21  2  0  0  0
 21 22  1  0  0  0
 22 26  1  0  0  0
 26 27  1  0  0  0
 26 28  1  0  0  0
 26 29  1  0  0  0
 22 23  2  0  0  0
 23 24  1  0  0  0
 24 30  1  0  0  0
 30 31  1  0  0  0
 30 32  1  0  0  0
 30 33  1  0  0  0
 24 25  2  0  0  0
  2 12  1  0  0  0
 12 13  2  0  0  0
 13 14  1  0  0  0
 14 15  2  0  0  0
 15 16  1  0  0  0
 16 17  2  0  0  0
  6  7  1  0  0  0
  7  8  1  0  0  0
  8  3  1  0  0  0
 25 20  1  0  0  0
 17 12  1  0  0  0
M  END
> <minimizedAffinity>
-7.24956

> <CNNscore>
0.2867515683

> <CNNaffinity>
5.3568887711

> <CNN_VS>
1.5360962152

> <CNNaffinity_variance>
0.6569241285

$$$$
[H]c1c([H])c([H])c(C([H])(N2C([H])([H])C([H])([H])N(C([H])([H])C#N)C([H])([H])C2([H])[H])C([H])([H])OC([H])([H])c2c([H])c(C(F)(F)F)c([H])c(C(F)(F)F)c2[H])c([H])c1[H]


 33 35  0  0  0  0  0  0  0  0999 V2000
   37.6350  -17.9854   36.6354 C   0  0  0  0  0  0  0  0  0  0  0  0
   36.2116  -17.6699   36.9495 C   0  0  0  0  0  0  0  0  0  0  0  0
   33.2784  -19.5771   34.6105 N   0  0  0  0  0  0  0  0  0  0  0  0
   34.3833  -18.9678   33.9635 C   0  0  0  0  0  0  0  0  0  0  0  0
   35.0175  -17.8869   34.8347 C   0  0  0  0  0  0  0  0  0  0  0  0
   35.3271  -18.3857   36.1228 N   0  0  0  0  0  0  0  0  0  0  0  0
   34.3482  -19.1733   36.7861 C   0  0  0  0  0  0  0  0  0  0  0  0
   33.0872  -19.1833   35.9645 C   0  0  0  0  0  0  0  0  0  0  0  0
   32.1246  -19.8520   33.8389 C   0  0  0  0  0  0  0  0  0  0  0  0
   29.9905  -19.0680   35.1998 N   0  0  0  0  0  0  0  0  0  0  0  0
   30.9329  -19.4212   34.5873 C   0  0  0  0  0  0  0  0  0  0  0  0
   36.0253  -16.1973   36.9564 C   0  0  0  0  0  0  0  0  0  0  0  0
   34.8950  -15.5611   36.4931 C   0  0  0  0  0  0  0  0  0  0  0  0
   34.7775  -14.1844   36.4817 C   0  0  0  0  0  0  0  0  0  0  0  0
   35.7933  -13.3769   36.9361 C   0  0  0  0  0  0  0  0  0  0  0  0
   36.9357  -13.9975   37.4080 C   0  0  0  0  0  0  0  0  0  0  0  0
   37.0385  -15.3770   37.4120 C   0  0  0  0  0  0  0  0  0  0  0  0
   37.8717  -19.2764   36.1702 O   0  0  0  0  0  0  0  0  0  0  0  0
   38.7493  -19.8166   37.1445 C   0  0  0  0  0  0  0  0  0  0  0  0
   40.1402  -19.8502   36.7381 C   0  0  0  0  0  0  0  0  0  0  0  0
   41.0105  -18.8085   37.1287 C   0  0  0  0  0  0  0  0  0  0  0  0
   42.3277  -18.7807   36.7860 C   0  0  0  0  0  0  0  0  0  0  0  0
   42.8493  -19.8005   36.0290 C   0  0  0  0  0  0  0  0  0  0  0  0
   42.0162  -20.8224   35.6396 C   0  0  0  0  0  0  0  0  0  0  0  0
   40.6631  -20.8657   35.9834 C   0  0  0  0  0  0  0  0  0  0  0  0
   43.2482  -17.6784   37.1970 C   0  0  0  0  0  0  0  0  0  0  0  0
   42.8646  -16.4817   36.6953 F   0  0  0  0  0  0  0  0  0  0  0  0
   44.5121  -18.0585   36.7682 F   0  0  0  0  0  0  0  0  0  0  0  0
   43.2952  -17.6945   38.5823 F   0  0  0  0  0  0  0  0  0  0  0  0
   42.6395  -21.9142   34.8254 C   0  0  0  0  0  0  0  0  0  0  0  0
   42.3859  -21.6968   33.4646 F   0  0  0  0  0  0  0  0  0  0  0  0
   43.9933  -21.8352   35.0252 F   0  0  0  0  0  0  0  0  0  0  0  0
   42.1550  -23.1663   35.1415 F   0  0  0  0  0  0  0  0  0  0  0  0
 10 11  3  0  0  0
 11  9  1  0  0  0
  9  3  1  0  0  0
  3  4  1  0  0  0
  4  5  1  0  0  0
  5  6  1  0  0  0
  6  2  1  0  0  0
  2  1  1  0  0  0
  1 18  1  0  0  0
 18 19  1  0  0  0
 19 20  1  0  0  0
 20 21  2  0  0  0
 21 22  1  0  0  0
 22 26  1  0  0  0
 26 27  1  0  0  0
 26 28  1  0  0  0
 26 29  1  0  0  0
 22 23  2  0  0  0
 23 24  1  0  0  0
 24 30  1  0  0  0
 30 31  1  0  0  0
 30 32  1  0  0  0
 30 33  1  0  0  0
 24 25  2  0  0  0
  2 12  1  0  0  0
 12 13  2  0  0  0
 13 14  1  0  0  0
 14 15  2  0  0  0
 15 16  1  0  0  0
 16 17  2  0  0  0
  6  7  1  0  0  0
  7  8  1  0  0  0
  8  3  1  0  0  0
 25 20  1  0  0  0
 17 12  1  0  0  0
M  END
> <minimizedAffinity>
-6.71915

> <CNNscore>
0.2790131569

> <CNNaffinity>
5.1774444580

> <CNN_VS>
1.4445750713

> <CNNaffinity_variance>
0.6598051786

$$$$
[H]c1c([H])c([H])c(C([H])(N2C([H])([H])C([H])([H])N(C([H])([H])C#N)C([H])([H])C2([H])[H])C([H])([H])OC([H])([H])c2c([H])c(C(F)(F)F)c([H])c(C(F)(F)F)c2[H])c([H])c1[H]


 33 35  0  0  0  0  0  0  0  0999 V2000
   37.5584  -17.6893   36.6514 C   0  0  0  0  0  0  0  0  0  0  0  0
   36.1081  -17.4642   36.9163 C   0  0  0  0  0  0  0  0  0  0  0  0
   33.3795  -19.7987   34.7216 N   0  0  0  0  0  0  0  0  0  0  0  0
   34.2742  -18.9494   34.0225 C   0  0  0  0  0  0  0  0  0  0  0  0
   34.7715  -17.8088   34.9064 C   0  0  0  0  0  0  0  0  0  0  0  0
   35.3003  -18.2997   36.1242 N   0  0  0  0  0  0  0  0  0  0  0  0
   34.5647  -19.2991   36.8160 C   0  0  0  0  0  0  0  0  0  0  0  0
   33.2531  -19.5194   36.1112 C   0  0  0  0  0  0  0  0  0  0  0  0
   32.2290  -20.2593   34.0387 C   0  0  0  0  0  0  0  0  0  0  0  0
   30.0738  -19.1338   35.0920 N   0  0  0  0  0  0  0  0  0  0  0  0
   31.0360  -19.6360   34.6337 C   0  0  0  0  0  0  0  0  0  0  0  0
   35.8109  -16.0131   36.8186 C   0  0  0  0  0  0  0  0  0  0  0  0
   34.6064  -15.5000   36.3908 C   0  0  0  0  0  0  0  0  0  0  0  0
   34.3838  -14.1411   36.2776 C   0  0  0  0  0  0  0  0  0  0  0  0
   35.3635  -13.2281   36.5890 C   0  0  0  0  0  0  0  0  0  0  0  0
   36.5794  -13.7242   37.0233 C   0  0  0  0  0  0  0  0  0  0  0  0
   36.7873  -15.0876   37.1305 C   0  0  0  0  0  0  0  0  0  0  0  0
   37.8502  -18.7292   35.7723 O   0  0  0  0  0  0  0  0  0  0  0  0
   38.6070  -19.6254   36.5696 C   0  0  0  0  0  0  0  0  0  0  0  0
   40.0024  -19.2606   36.7122 C   0  0  0  0  0  0  0  0  0  0  0  0
   40.6342  -19.3817   37.9697 C   0  0  0  0  0  0  0  0  0  0  0  0
   41.9419  -19.0617   38.1718 C   0  0  0  0  0  0  0  0  0  0  0  0
   42.6936  -18.6002   37.1197 C   0  0  0  0  0  0  0  0  0  0  0  0
   42.0946  -18.4756   35.8886 C   0  0  0  0  0  0  0  0  0  0  0  0
   40.7546  -18.8003   35.6650 C   0  0  0  0  0  0  0  0  0  0  0  0
   42.6100  -19.1877   39.5019 C   0  0  0  0  0  0  0  0  0  0  0  0
   43.1099  -18.0068   39.9340 F   0  0  0  0  0  0  0  0  0  0  0  0
   43.5893  -20.1584   39.3451 F   0  0  0  0  0  0  0  0  0  0  0  0
   41.6731  -19.7285   40.3687 F   0  0  0  0  0  0  0  0  0  0  0  0
   42.9632  -17.9789   34.7742 C   0  0  0  0  0  0  0  0  0  0  0  0
   42.9840  -16.5778   34.7757 F   0  0  0  0  0  0  0  0  0  0  0  0
   44.2335  -18.4249   35.0317 F   0  0  0  0  0  0  0  0  0  0  0  0
   42.5285  -18.3846   33.5297 F   0  0  0  0  0  0  0  0  0  0  0  0
 10 11  3  0  0  0
 11  9  1  0  0  0
  9  3  1  0  0  0
  3  4  1  0  0  0
  4  5  1  0  0  0
  5  6  1  0  0  0
  6  2  1  0  0  0
  2  1  1  0  0  0
  1 18  1  0  0  0
 18 19  1  0  0  0
 19 20  1  0  0  0
 20 21  2  0  0  0
 21 22  1  0  0  0
 22 26  1  0  0  0
 26 27  1  0  0  0
 26 28  1  0  0  0
 26 29  1  0  0  0
 22 23  2  0  0  0
 23 24  1  0  0  0
 24 30  1  0  0  0
 30 31  1  0  0  0
 30 32  1  0  0  0
 30 33  1  0  0  0
 24 25  2  0  0  0
  2 12  1  0  0  0
 12 13  2  0  0  0
 13 14  1  0  0  0
 14 15  2  0  0  0
 15 16  1  0  0  0
 16 17  2  0  0  0
  6  7  1  0  0  0
  7  8  1  0  0  0
  8  3  1  0  0  0
 25 20  1  0  0  0
 17 12  1  0  0  0
M  END
> <minimizedAffinity>
-7.07481

> <CNNscore>
0.2259495109

> <CNNaffinity>
5.1390352249

> <CNN_VS>
1.1611624956

> <CNNaffinity_variance>
0.5612471700

$$$$
[H]c1c([H])c([H])c(C([H])(N2C([H])([H])C([H])([H])N(C([H])([H])C#N)C([H])([H])C2([H])[H])C([H])([H])OC([H])([H])c2c([H])c(C(F)(F)F)c([H])c(C(F)(F)F)c2[H])c([H])c1[H]


 33 35  0  0  0  0  0  0  0  0999 V2000
   33.4973  -18.2588   34.1048 C   0  0  0  0  0  0  0  0  0  0  0  0
   33.6759  -19.5399   34.8473 C   0  0  0  0  0  0  0  0  0  0  0  0
   29.9566  -20.8294   36.3358 N   0  0  0  0  0  0  0  0  0  0  0  0
   31.1262  -21.5454   36.6965 C   0  0  0  0  0  0  0  0  0  0  0  0
   32.2495  -21.3308   35.6860 C   0  0  0  0  0  0  0  0  0  0  0  0
   32.4817  -19.9519   35.4656 N   0  0  0  0  0  0  0  0  0  0  0  0
   31.3548  -19.1076   35.2770 C   0  0  0  0  0  0  0  0  0  0  0  0
   30.1109  -19.9535   35.2249 C   0  0  0  0  0  0  0  0  0  0  0  0
   28.7070  -21.4743   36.4929 C   0  0  0  0  0  0  0  0  0  0  0  0
   28.8967  -23.9334   35.5244 N   0  0  0  0  0  0  0  0  0  0  0  0
   28.8020  -22.8420   35.9579 C   0  0  0  0  0  0  0  0  0  0  0  0
   34.8516  -19.4262   35.7464 C   0  0  0  0  0  0  0  0  0  0  0  0
   36.1588  -19.5055   35.3198 C   0  0  0  0  0  0  0  0  0  0  0  0
   37.2247  -19.4333   36.1960 C   0  0  0  0  0  0  0  0  0  0  0  0
   37.0290  -19.2778   37.5480 C   0  0  0  0  0  0  0  0  0  0  0  0
   35.7230  -19.1932   37.9955 C   0  0  0  0  0  0  0  0  0  0  0  0
   34.6664  -19.2682   37.1058 C   0  0  0  0  0  0  0  0  0  0  0  0
   34.3288  -17.2160   34.5052 O   0  0  0  0  0  0  0  0  0  0  0  0
   33.4470  -16.3437   35.1929 C   0  0  0  0  0  0  0  0  0  0  0  0
   34.1129  -15.3292   35.9855 C   0  0  0  0  0  0  0  0  0  0  0  0
   33.3881  -14.2040   36.4371 C   0  0  0  0  0  0  0  0  0  0  0  0
   33.9503  -13.2179   37.1887 C   0  0  0  0  0  0  0  0  0  0  0  0
   35.2769  -13.3046   37.5317 C   0  0  0  0  0  0  0  0  0  0  0  0
   35.9976  -14.3929   37.1002 C   0  0  0  0  0  0  0  0  0  0  0  0
   35.4354  -15.4129   36.3292 C   0  0  0  0  0  0  0  0  0  0  0  0
   33.1849  -12.0268   37.6649 C   0  0  0  0  0  0  0  0  0  0  0  0
   32.0034  -11.8901   37.0196 F   0  0  0  0  0  0  0  0  0  0  0  0
   34.0244  -10.9371   37.4814 F   0  0  0  0  0  0  0  0  0  0  0  0
   33.0395  -12.1689   39.0361 F   0  0  0  0  0  0  0  0  0  0  0  0
   37.4367  -14.4427   37.5125 C   0  0  0  0  0  0  0  0  0  0  0  0
   37.5424  -14.2449   38.8956 F   0  0  0  0  0  0  0  0  0  0  0  0
   37.8884  -15.7048   37.2261 F   0  0  0  0  0  0  0  0  0  0  0  0
   38.2077  -13.4789   36.8969 F   0  0  0  0  0  0  0  0  0  0  0  0
 10 11  3  0  0  0
 11  9  1  0  0  0
  9  3  1  0  0  0
  3  4  1  0  0  0
  4  5  1  0  0  0
  5  6  1  0  0  0
  6  2  1  0  0  0
  2  1  1  0  0  0
  1 18  1  0  0  0
 18 19  1  0  0  0
 19 20  1  0  0  0
 20 21  2  0  0  0
 21 22  1  0  0  0
 22 26  1  0  0  0
 26 27  1  0  0  0
 26 28  1  0  0  0
 26 29  1  0  0  0
 22 23  2  0  0  0
 23 24  1  0  0  0
 24 30  1  0  0  0
 30 31  1  0  0  0
 30 32  1  0  0  0
 30 33  1  0  0  0
 24 25  2  0  0  0
  2 12  1  0  0  0
 12 13  2  0  0  0
 13 14  1  0  0  0
 14 15  2  0  0  0
 15 16  1  0  0  0
 16 17  2  0  0  0
  6  7  1  0  0  0
  7  8  1  0  0  0
  8  3  1  0  0  0
 25 20  1  0  0  0
 17 12  1  0  0  0
M  END
> <minimizedAffinity>
-7.39421

> <CNNscore>
0.2094304115

> <CNNaffinity>
5.1368684769

> <CNN_VS>
1.0758165121

> <CNNaffinity_variance>
0.5879028440

$$$$
[H]c1c([H])c([H])c(C([H])(N2C([H])([H])C([H])([H])N(C([H])([H])C#N)C([H])([H])C2([H])[H])C([H])([H])OC([H])([H])c2c([H])c(C(F)(F)F)c([H])c(C(F)(F)F)c2[H])c([H])c1[H]


 33 35  0  0  0  0  0  0  0  0999 V2000
   34.2615  -18.5670   35.5577 C   0  0  0  0  0  0  0  0  0  0  0  0
   35.3758  -18.0002   36.3708 C   0  0  0  0  0  0  0  0  0  0  0  0
   35.0765  -13.8293   36.8468 N   0  0  0  0  0  0  0  0  0  0  0  0
   33.9148  -14.5663   36.5031 C   0  0  0  0  0  0  0  0  0  0  0  0
   34.2688  -15.8939   35.8385 C   0  0  0  0  0  0  0  0  0  0  0  0
   35.1875  -16.6297   36.6248 N   0  0  0  0  0  0  0  0  0  0  0  0
   36.2980  -15.9364   37.1768 C   0  0  0  0  0  0  0  0  0  0  0  0
   36.3034  -14.5244   36.6557 C   0  0  0  0  0  0  0  0  0  0  0  0
   35.0713  -12.4335   36.6152 C   0  0  0  0  0  0  0  0  0  0  0  0
   33.0320  -11.3522   37.9164 N   0  0  0  0  0  0  0  0  0  0  0  0
   33.9455  -11.8298   37.3458 C   0  0  0  0  0  0  0  0  0  0  0  0
   36.6725  -18.3589   35.7439 C   0  0  0  0  0  0  0  0  0  0  0  0
   37.7394  -18.8938   36.4315 C   0  0  0  0  0  0  0  0  0  0  0  0
   38.9437  -19.1778   35.8166 C   0  0  0  0  0  0  0  0  0  0  0  0
   39.1360  -18.9372   34.4766 C   0  0  0  0  0  0  0  0  0  0  0  0
   38.0750  -18.4028   33.7683 C   0  0  0  0  0  0  0  0  0  0  0  0
   36.8758  -18.1229   34.3985 C   0  0  0  0  0  0  0  0  0  0  0  0
   33.3583  -19.3642   36.2563 O   0  0  0  0  0  0  0  0  0  0  0  0
   33.4720  -20.6233   35.6135 C   0  0  0  0  0  0  0  0  0  0  0  0
   32.2343  -21.3754   35.5566 C   0  0  0  0  0  0  0  0  0  0  0  0
   32.1805  -22.5834   34.8266 C   0  0  0  0  0  0  0  0  0  0  0  0
   31.0528  -23.3407   34.7363 C   0  0  0  0  0  0  0  0  0  0  0  0
   29.9103  -22.9280   35.3759 C   0  0  0  0  0  0  0  0  0  0  0  0
   29.9446  -21.7541   36.0906 C   0  0  0  0  0  0  0  0  0  0  0  0
   31.0935  -20.9664   36.1933 C   0  0  0  0  0  0  0  0  0  0  0  0
   30.9947  -24.6174   33.9628 C   0  0  0  0  0  0  0  0  0  0  0  0
   29.7549  -25.1594   33.9682 F   0  0  0  0  0  0  0  0  0  0  0  0
   31.9461  -25.4513   34.5333 F   0  0  0  0  0  0  0  0  0  0  0  0
   31.4550  -24.3314   32.6870 F   0  0  0  0  0  0  0  0  0  0  0  0
   28.6743  -21.3570   36.7776 C   0  0  0  0  0  0  0  0  0  0  0  0
   28.8370  -21.4451   38.1665 F   0  0  0  0  0  0  0  0  0  0  0  0
   28.4432  -20.0444   36.4574 F   0  0  0  0  0  0  0  0  0  0  0  0
   27.6035  -22.1561   36.4352 F   0  0  0  0  0  0  0  0  0  0  0  0
 10 11  3  0  0  0
 11  9  1  0  0  0
  9  3  1  0  0  0
  3  4  1  0  0  0
  4  5  1  0  0  0
  5  6  1  0  0  0
  6  2  1  0  0  0
  2  1  1  0  0  0
  1 18  1  0  0  0
 18 19  1  0  0  0
 19 20  1  0  0  0
 20 21  2  0  0  0
 21 22  1  0  0  0
 22 26  1  0  0  0
 26 27  1  0  0  0
 26 28  1  0  0  0
 26 29  1  0  0  0
 22 23  2  0  0  0
 23 24  1  0  0  0
 24 30  1  0  0  0
 30 31  1  0  0  0
 30 32  1  0  0  0
 30 33  1  0  0  0
 24 25  2  0  0  0
  2 12  1  0  0  0
 12 13  2  0  0  0
 13 14  1  0  0  0
 14 15  2  0  0  0
 15 16  1  0  0  0
 16 17  2  0  0  0
  6  7  1  0  0  0
  7  8  1  0  0  0
  8  3  1  0  0  0
 25 20  1  0  0  0
 17 12  1  0  0  0
M  END
> <minimizedAffinity>
-6.71593

> <CNNscore>
0.1998304576

> <CNNaffinity>
5.3048124313

> <CNN_VS>
1.0600631237

> <CNNaffinity_variance>
0.4543633461

$$$$
[H]c1c([H])c([H])c(C([H])(N2C([H])([H])C([H])([H])N(C([H])([H])C#N)C([H])([H])C2([H])[H])C([H])([H])OC([H])([H])c2c([H])c(C(F)(F)F)c([H])c(C(F)(F)F)c2[H])c([H])c1[H]


 33 35  0  0  0  0  0  0  0  0999 V2000
   33.7714  -18.0219   36.0696 C   0  0  0  0  0  0  0  0  0  0  0  0
   34.3032  -19.0003   35.0775 C   0  0  0  0  0  0  0  0  0  0  0  0
   32.0455  -22.5206   35.5487 N   0  0  0  0  0  0  0  0  0  0  0  0
   32.2886  -22.0307   34.2404 C   0  0  0  0  0  0  0  0  0  0  0  0
   32.6006  -20.5368   34.2496 C   0  0  0  0  0  0  0  0  0  0  0  0
   33.6402  -20.2377   35.1626 N   0  0  0  0  0  0  0  0  0  0  0  0
   33.5878  -20.8332   36.4514 C   0  0  0  0  0  0  0  0  0  0  0  0
   32.2915  -21.5850   36.5924 C   0  0  0  0  0  0  0  0  0  0  0  0
   30.9839  -23.4385   35.7286 C   0  0  0  0  0  0  0  0  0  0  0  0
   28.6714  -22.1566   35.5559 N   0  0  0  0  0  0  0  0  0  0  0  0
   29.7045  -22.7172   35.6352 C   0  0  0  0  0  0  0  0  0  0  0  0
   35.7819  -19.0613   35.1928 C   0  0  0  0  0  0  0  0  0  0  0  0
   36.6161  -19.4976   34.1874 C   0  0  0  0  0  0  0  0  0  0  0  0
   37.9861  -19.5755   34.3494 C   0  0  0  0  0  0  0  0  0  0  0  0
   38.5869  -19.2182   35.5334 C   0  0  0  0  0  0  0  0  0  0  0  0
   37.7658  -18.7747   36.5542 C   0  0  0  0  0  0  0  0  0  0  0  0
   36.3958  -18.7034   36.3769 C   0  0  0  0  0  0  0  0  0  0  0  0
   32.8767  -17.0834   35.5617 O   0  0  0  0  0  0  0  0  0  0  0  0
   33.7231  -16.1370   34.9296 C   0  0  0  0  0  0  0  0  0  0  0  0
   34.2324  -15.1098   35.8163 C   0  0  0  0  0  0  0  0  0  0  0  0
   35.5839  -15.1434   36.2256 C   0  0  0  0  0  0  0  0  0  0  0  0
   36.1274  -14.2081   37.0521 C   0  0  0  0  0  0  0  0  0  0  0  0
   35.3433  -13.1815   37.5169 C   0  0  0  0  0  0  0  0  0  0  0  0
   34.0252  -13.1336   37.1290 C   0  0  0  0  0  0  0  0  0  0  0  0
   33.4529  -14.0849   36.2814 C   0  0  0  0  0  0  0  0  0  0  0  0
   37.5561  -14.2441   37.4868 C   0  0  0  0  0  0  0  0  0  0  0  0
   38.2913  -13.2718   36.8993 F   0  0  0  0  0  0  0  0  0  0  0  0
   38.0139  -15.5187   37.1835 F   0  0  0  0  0  0  0  0  0  0  0  0
   37.5537  -14.1596   38.8704 F   0  0  0  0  0  0  0  0  0  0  0  0
   33.2187  -11.9868   37.6559 C   0  0  0  0  0  0  0  0  0  0  0  0
   32.9410  -12.1852   39.0149 F   0  0  0  0  0  0  0  0  0  0  0  0
   33.9987  -10.8657   37.5389 F   0  0  0  0  0  0  0  0  0  0  0  0
   32.0122  -11.8322   37.0056 F   0  0  0  0  0  0  0  0  0  0  0  0
 10 11  3  0  0  0
 11  9  1  0  0  0
  9  3  1  0  0  0
  3  4  1  0  0  0
  4  5  1  0  0  0
  5  6  1  0  0  0
  6  2  1  0  0  0
  2  1  1  0  0  0
  1 18  1  0  0  0
 18 19  1  0  0  0
 19 20  1  0  0  0
 20 21  2  0  0  0
 21 22  1  0  0  0
 22 26  1  0  0  0
 26 27  1  0  0  0
 26 28  1  0  0  0
 26 29  1  0  0  0
 22 23  2  0  0  0
 23 24  1  0  0  0
 24 30  1  0  0  0
 30 31  1  0  0  0
 30 32  1  0  0  0
 30 33  1  0  0  0
 24 25  2  0  0  0
  2 12  1  0  0  0
 12 13  2  0  0  0
 13 14  1  0  0  0
 14 15  2  0  0  0
 15 16  1  0  0  0
 16 17  2  0  0  0
  6  7  1  0  0  0
  7  8  1  0  0  0
  8  3  1  0  0  0
 25 20  1  0  0  0
 17 12  1  0  0  0
M  END
> <minimizedAffinity>
-6.91149

> <CNNscore>
0.1926893890

> <CNNaffinity>
4.9625148773

> <CNN_VS>
0.9562239647

> <CNNaffinity_variance>
0.6254059672

$$$$
[H]OC(=O)c1c([H])c([H])c([H])c(O[H])c1C(=O)c1c(O[H])c([H])c(C(=O)OC([H])([H])[C@]2([H])C([H])([H])C([H])([H])C([H])([H])[C@@]2([H])N([H])C(=O)c2c([H])c([H])c(O[H])c([H])c2[H])c([H])c1O[H]


 45 48  0  0  0  0  0  0  0  0999 V2000
   33.6288  -19.6878   34.8724 C   0  0  0  0  0  0  0  0  0  0  0  0
   32.3198  -19.3117   34.9181 C   0  0  0  0  0  0  0  0  0  0  0  0
   31.3889  -20.0055   35.7038 C   0  0  0  0  0  0  0  0  0  0  0  0
   30.0991  -19.5344   35.6780 O   0  0  0  0  0  0  0  0  0  0  0  0
   31.7524  -21.0961   36.4623 C   0  0  0  0  0  0  0  0  0  0  0  0
   33.1007  -21.4766   36.4084 C   0  0  0  0  0  0  0  0  0  0  0  0
   33.5907  -22.5787   37.1330 O   0  0  0  0  0  0  0  0  0  0  0  0
   33.9908  -20.7758   35.6297 C   0  0  0  0  0  0  0  0  0  0  0  0
   29.2912  -19.8217   36.1448 H   0  0  0  0  0  0  0  0  0  0  0  0
   34.5464  -22.8288   37.0803 H   0  0  0  0  0  0  0  0  0  0  0  0
   34.6234  -18.9625   34.0493 C   0  0  0  0  0  0  0  0  0  0  0  0
   34.3879  -17.7775   33.7803 O   0  0  0  0  0  0  0  0  0  0  0  0
   35.7175  -19.5559   33.6192 O   0  0  0  0  0  0  0  0  0  0  0  0
   37.0063  -19.7941   33.9186 C   0  0  0  0  0  0  0  0  0  0  0  0
   37.3865  -18.2507   35.7505 C   0  0  0  0  0  0  0  0  0  0  0  0
   38.5621  -18.5751   36.6401 C   0  0  0  0  0  0  0  0  0  0  0  0
   39.7616  -18.7807   35.7798 C   0  0  0  0  0  0  0  0  0  0  0  0
   39.2853  -18.8163   34.3339 C   0  0  0  0  0  0  0  0  0  0  0  0
   37.8415  -18.6463   34.3414 C   0  0  0  0  0  0  0  0  0  0  0  0
   35.1003  -17.3887   36.9663 O   0  0  0  0  0  0  0  0  0  0  0  0
   35.8309  -16.4812   36.4714 C   0  0  0  0  0  0  0  0  0  0  0  0
   37.0202  -16.8502   35.8301 N   0  0  0  0  0  0  0  0  0  0  0  0
   37.6428  -16.1133   35.4079 H   0  0  0  0  0  0  0  0  0  0  0  0
   35.4024  -15.1149   36.5928 C   0  0  0  0  0  0  0  0  0  0  0  0
   34.0767  -14.7836   36.4604 C   0  0  0  0  0  0  0  0  0  0  0  0
   33.6491  -13.4584   36.5745 C   0  0  0  0  0  0  0  0  0  0  0  0
   34.5711  -12.4719   36.8237 C   0  0  0  0  0  0  0  0  0  0  0  0
   34.1640  -11.1408   36.9417 O   0  0  0  0  0  0  0  0  0  0  0  0
   35.9027  -12.8068   36.9565 C   0  0  0  0  0  0  0  0  0  0  0  0
   36.3331  -14.1094   36.8456 C   0  0  0  0  0  0  0  0  0  0  0  0
   33.8992  -10.7457   37.8248 H   0  0  0  0  0  0  0  0  0  0  0  0
   30.8633  -21.9632   37.1639 C   0  0  0  0  0  0  0  0  0  0  0  0
   31.2280  -22.1558   38.4114 O   0  0  0  0  0  0  0  0  0  0  0  0
   29.6551  -22.6418   36.7733 C   0  0  0  0  0  0  0  0  0  0  0  0
   29.8776  -23.7166   35.8739 C   0  0  0  0  0  0  0  0  0  0  0  0
   31.1736  -24.0155   35.4778 O   0  0  0  0  0  0  0  0  0  0  0  0
   28.8600  -24.4727   35.3803 C   0  0  0  0  0  0  0  0  0  0  0  0
   27.5898  -24.1517   35.7913 C   0  0  0  0  0  0  0  0  0  0  0  0
   27.3459  -23.1256   36.6486 C   0  0  0  0  0  0  0  0  0  0  0  0
   28.4044  -22.3223   37.1703 C   0  0  0  0  0  0  0  0  0  0  0  0
   31.3178  -24.7793   34.8409 H   0  0  0  0  0  0  0  0  0  0  0  0
   28.0158  -21.1294   37.8883 C   0  0  0  0  0  0  0  0  0  0  0  0
   27.8373  -20.0642   37.2047 O   0  0  0  0  0  0  0  0  0  0  0  0
   27.8245  -20.9953   39.2176 O   0  0  0  0  0  0  0  0  0  0  0  0
   27.7667  -20.1443   39.7408 H   0  0  0  0  0  0  0  0  0  0  0  0
 20 21  2  0  0  0
 21 22  1  0  0  0
 22 15  1  0  0  0
 15 16  1  0  0  0
 16 17  1  0  0  0
 17 18  1  0  0  0
 18 19  1  0  0  0
 19 14  1  0  0  0
 14 13  1  0  0  0
 13 11  1  0  0  0
 11 12  2  0  0  0
 11  1  1  0  0  0
  1  2  2  0  0  0
  2  3  1  0  0  0
  3  4  1  0  0  0
  3  5  2  0  0  0
  5 32  1  0  0  0
 32 33  2  0  0  0
 32 34  1  0  0  0
 34 35  2  0  0  0
 35 36  1  0  0  0
 35 37  1  0  0  0
 37 38  2  0  0  0
 38 39  1  0  0  0
 39 40  2  0  0  0
 40 42  1  0  0  0
 42 43  2  0  0  0
 42 44  1  0  0  0
  5  6  1  0  0  0
  6  7  1  0  0  0
  6  8  2  0  0  0
 21 24  1  0  0  0
 24 25  2  0  0  0
 25 26  1  0  0  0
 26 27  2  0  0  0
 27 28  1  0  0  0
 27 29  1  0  0  0
 29 30  2  0  0  0
 19 15  1  0  0  0
  8  1  1  0  0  0
 30 24  1  0  0  0
 40 34  1  0  0  0
 22 23  1  0  0  0
  4  9  1  0  0  0
 36 41  1  0  0  0
 44 45  1  0  0  0
  7 10  1  0  0  0
 28 31  1  0  0  0
M  END
> <minimizedAffinity>
-7.80993

> <CNNscore>
0.4030495286

> <CNNaffinity>
5.5839400291

> <CNN_VS>
2.2506043911

> <CNNaffinity_variance>
0.1179332286

$$$$
[H]OC(=O)c1c([H])c([H])c([H])c(O[H])c1C(=O)c1c(O[H])c([H])c(C(=O)OC([H])([H])[C@]2([H])C([H])([H])C([H])([H])C([H])([H])[C@@]2([H])N([H])C(=O)c2c([H])c([H])c(O[H])c([H])c2[H])c([H])c1O[H]


 45 48  0  0  0  0  0  0  0  0999 V2000
   36.9286  -20.2843   37.6979 C   0  0  0  0  0  0  0  0  0  0  0  0
   37.5930  -19.4279   36.8719 C   0  0  0  0  0  0  0  0  0  0  0  0
   38.9920  -19.3394   36.8862 C   0  0  0  0  0  0  0  0  0  0  0  0
   39.5546  -18.4468   36.0071 O   0  0  0  0  0  0  0  0  0  0  0  0
   39.7570  -20.1101   37.7333 C   0  0  0  0  0  0  0  0  0  0  0  0
   39.0652  -20.9875   38.5801 C   0  0  0  0  0  0  0  0  0  0  0  0
   39.7360  -21.8203   39.4945 O   0  0  0  0  0  0  0  0  0  0  0  0
   37.6926  -21.0532   38.5425 C   0  0  0  0  0  0  0  0  0  0  0  0
   40.4846  -18.2224   35.8124 H   0  0  0  0  0  0  0  0  0  0  0  0
   39.2272  -22.4322   40.0823 H   0  0  0  0  0  0  0  0  0  0  0  0
   35.4517  -20.3904   37.6913 C   0  0  0  0  0  0  0  0  0  0  0  0
   34.8259  -19.7110   38.5154 O   0  0  0  0  0  0  0  0  0  0  0  0
   34.8269  -21.1782   36.8409 O   0  0  0  0  0  0  0  0  0  0  0  0
   33.6381  -21.4126   36.2584 C   0  0  0  0  0  0  0  0  0  0  0  0
   33.0421  -19.3927   35.0554 C   0  0  0  0  0  0  0  0  0  0  0  0
   31.9130  -19.5363   34.0639 C   0  0  0  0  0  0  0  0  0  0  0  0
   30.7582  -20.1775   34.7542 C   0  0  0  0  0  0  0  0  0  0  0  0
   31.2464  -20.6499   36.1171 C   0  0  0  0  0  0  0  0  0  0  0  0
   32.6547  -20.3056   36.2241 C   0  0  0  0  0  0  0  0  0  0  0  0
   35.4288  -18.0836   34.8614 O   0  0  0  0  0  0  0  0  0  0  0  0
   34.4737  -17.4085   35.3455 C   0  0  0  0  0  0  0  0  0  0  0  0
   33.2187  -18.0166   35.4761 N   0  0  0  0  0  0  0  0  0  0  0  0
   32.4096  -17.4761   35.8790 H   0  0  0  0  0  0  0  0  0  0  0  0
   34.7255  -16.0490   35.7371 C   0  0  0  0  0  0  0  0  0  0  0  0
   33.6876  -15.1664   35.9058 C   0  0  0  0  0  0  0  0  0  0  0  0
   33.9208  -13.8419   36.2844 C   0  0  0  0  0  0  0  0  0  0  0  0
   35.2102  -13.4172   36.4912 C   0  0  0  0  0  0  0  0  0  0  0  0
   35.4647  -12.0971   36.8704 O   0  0  0  0  0  0  0  0  0  0  0  0
   36.2517  -14.3057   36.3212 C   0  0  0  0  0  0  0  0  0  0  0  0
   36.0315  -15.6121   35.9484 C   0  0  0  0  0  0  0  0  0  0  0  0
   35.5032  -11.8225   37.8344 H   0  0  0  0  0  0  0  0  0  0  0  0
   41.1627  -19.9847   37.9411 C   0  0  0  0  0  0  0  0  0  0  0  0
   41.4546  -19.4850   39.1206 O   0  0  0  0  0  0  0  0  0  0  0  0
   42.3007  -20.3116   37.1221 C   0  0  0  0  0  0  0  0  0  0  0  0
   42.9160  -19.1768   36.5329 C   0  0  0  0  0  0  0  0  0  0  0  0
   42.4040  -17.9133   36.7924 O   0  0  0  0  0  0  0  0  0  0  0  0
   43.9988  -19.2803   35.7158 C   0  0  0  0  0  0  0  0  0  0  0  0
   44.4814  -20.5438   35.4788 C   0  0  0  0  0  0  0  0  0  0  0  0
   43.9106  -21.6492   36.0261 C   0  0  0  0  0  0  0  0  0  0  0  0
   42.7717  -21.5543   36.8816 C   0  0  0  0  0  0  0  0  0  0  0  0
   42.8491  -17.1178   36.3694 H   0  0  0  0  0  0  0  0  0  0  0  0
   42.1157  -22.7962   37.2233 C   0  0  0  0  0  0  0  0  0  0  0  0
   41.5188  -23.4234   36.2829 O   0  0  0  0  0  0  0  0  0  0  0  0
   42.0447  -23.3820   38.4371 O   0  0  0  0  0  0  0  0  0  0  0  0
   41.4258  -24.1142   38.7236 H   0  0  0  0  0  0  0  0  0  0  0  0
 20 21  2  0  0  0
 21 22  1  0  0  0
 22 15  1  0  0  0
 15 16  1  0  0  0
 16 17  1  0  0  0
 17 18  1  0  0  0
 18 19  1  0  0  0
 19 14  1  0  0  0
 14 13  1  0  0  0
 13 11  1  0  0  0
 11 12  2  0  0  0
 11  1  1  0  0  0
  1  2  2  0  0  0
  2  3  1  0  0  0
  3  4  1  0  0  0
  3  5  2  0  0  0
  5 32  1  0  0  0
 32 33  2  0  0  0
 32 34  1  0  0  0
 34 35  2  0  0  0
 35 36  1  0  0  0
 35 37  1  0  0  0
 37 38  2  0  0  0
 38 39  1  0  0  0
 39 40  2  0  0  0
 40 42  1  0  0  0
 42 43  2  0  0  0
 42 44  1  0  0  0
  5  6  1  0  0  0
  6  7  1  0  0  0
  6  8  2  0  0  0
 21 24  1  0  0  0
 24 25  2  0  0  0
 25 26  1  0  0  0
 26 27  2  0  0  0
 27 28  1  0  0  0
 27 29  1  0  0  0
 29 30  2  0  0  0
 19 15  1  0  0  0
  8  1  1  0  0  0
 30 24  1  0  0  0
 40 34  1  0  0  0
 22 23  1  0  0  0
  4  9  1  0  0  0
 36 41  1  0  0  0
 44 45  1  0  0  0
  7 10  1  0  0  0
 28 31  1  0  0  0
M  END
> <minimizedAffinity>
-6.64161

> <CNNscore>
0.3953355849

> <CNNaffinity>
5.4700050354

> <CNN_VS>
2.1624877453

> <CNNaffinity_variance>
0.0827722698

$$$$
[H]OC(=O)c1c([H])c([H])c([H])c(O[H])c1C(=O)c1c(O[H])c([H])c(C(=O)OC([H])([H])[C@]2([H])C([H])([H])C([H])([H])C([H])([H])[C@@]2([H])N([H])C(=O)c2c([H])c([H])c(O[H])c([H])c2[H])c([H])c1O[H]


 45 48  0  0  0  0  0  0  0  0999 V2000
   34.4243  -15.7687   35.6185 C   0  0  0  0  0  0  0  0  0  0  0  0
   35.2227  -15.4214   36.6668 C   0  0  0  0  0  0  0  0  0  0  0  0
   34.9421  -14.2971   37.4558 C   0  0  0  0  0  0  0  0  0  0  0  0
   35.8113  -14.0460   38.4891 O   0  0  0  0  0  0  0  0  0  0  0  0
   33.8513  -13.4936   37.2083 C   0  0  0  0  0  0  0  0  0  0  0  0
   33.0361  -13.8577   36.1273 C   0  0  0  0  0  0  0  0  0  0  0  0
   31.8979  -13.1111   35.7712 O   0  0  0  0  0  0  0  0  0  0  0  0
   33.3359  -14.9667   35.3724 C   0  0  0  0  0  0  0  0  0  0  0  0
   35.8209  -13.3554   39.1790 H   0  0  0  0  0  0  0  0  0  0  0  0
   31.3367  -13.3870   35.0046 H   0  0  0  0  0  0  0  0  0  0  0  0
   34.7069  -16.9551   34.7788 C   0  0  0  0  0  0  0  0  0  0  0  0
   35.8809  -17.3418   34.7118 O   0  0  0  0  0  0  0  0  0  0  0  0
   33.7455  -17.5757   34.1270 O   0  0  0  0  0  0  0  0  0  0  0  0
   32.9010  -18.6202   34.1845 C   0  0  0  0  0  0  0  0  0  0  0  0
   33.8377  -19.9512   35.9826 C   0  0  0  0  0  0  0  0  0  0  0  0
   32.8942  -20.9461   36.6141 C   0  0  0  0  0  0  0  0  0  0  0  0
   32.2772  -21.7634   35.5312 C   0  0  0  0  0  0  0  0  0  0  0  0
   32.6574  -21.1227   34.2031 C   0  0  0  0  0  0  0  0  0  0  0  0
   33.4689  -19.9523   34.4950 C   0  0  0  0  0  0  0  0  0  0  0  0
   35.3911  -18.7678   37.8890 O   0  0  0  0  0  0  0  0  0  0  0  0
   35.9615  -19.6617   37.1977 C   0  0  0  0  0  0  0  0  0  0  0  0
   35.2252  -20.3114   36.1989 N   0  0  0  0  0  0  0  0  0  0  0  0
   35.6790  -21.0563   35.6088 H   0  0  0  0  0  0  0  0  0  0  0  0
   37.3388  -19.9656   37.4732 C   0  0  0  0  0  0  0  0  0  0  0  0
   38.3420  -19.4063   36.7213 C   0  0  0  0  0  0  0  0  0  0  0  0
   39.6842  -19.6962   36.9788 C   0  0  0  0  0  0  0  0  0  0  0  0
   40.0040  -20.5547   38.0017 C   0  0  0  0  0  0  0  0  0  0  0  0
   41.3399  -20.8573   38.2756 O   0  0  0  0  0  0  0  0  0  0  0  0
   38.9944  -21.1156   38.7561 C   0  0  0  0  0  0  0  0  0  0  0  0
   37.6695  -20.8360   38.5096 C   0  0  0  0  0  0  0  0  0  0  0  0
   41.8833  -20.3134   38.9199 H   0  0  0  0  0  0  0  0  0  0  0  0
   33.5666  -12.2478   37.8420 C   0  0  0  0  0  0  0  0  0  0  0  0
   33.2490  -12.3885   39.1091 O   0  0  0  0  0  0  0  0  0  0  0  0
   33.5773  -10.8889   37.3664 C   0  0  0  0  0  0  0  0  0  0  0  0
   32.3840  -10.1794   37.6600 C   0  0  0  0  0  0  0  0  0  0  0  0
   31.3664  -10.8172   38.3553 O   0  0  0  0  0  0  0  0  0  0  0  0
   32.1971   -8.8856   37.2828 C   0  0  0  0  0  0  0  0  0  0  0  0
   33.2224   -8.2829   36.5966 C   0  0  0  0  0  0  0  0  0  0  0  0
   34.3749   -8.9385   36.2979 C   0  0  0  0  0  0  0  0  0  0  0  0
   34.5816  -10.2971   36.6843 C   0  0  0  0  0  0  0  0  0  0  0  0
   30.5266  -10.3036   38.5574 H   0  0  0  0  0  0  0  0  0  0  0  0
   35.7386  -10.9586   36.1246 C   0  0  0  0  0  0  0  0  0  0  0  0
   36.1015  -10.6127   34.9488 O   0  0  0  0  0  0  0  0  0  0  0  0
   36.4914  -11.9221   36.6959 O   0  0  0  0  0  0  0  0  0  0  0  0
   37.1494  -12.5267   36.2456 H   0  0  0  0  0  0  0  0  0  0  0  0
 20 21  2  0  0  0
 21 22  1  0  0  0
 22 15  1  0  0  0
 15 16  1  0  0  0
 16 17  1  0  0  0
 17 18  1  0  0  0
 18 19  1  0  0  0
 19 14  1  0  0  0
 14 13  1  0  0  0
 13 11  1  0  0  0
 11 12  2  0  0  0
 11  1  1  0  0  0
  1  2  2  0  0  0
  2  3  1  0  0  0
  3  4  1  0  0  0
  3  5  2  0  0  0
  5 32  1  0  0  0
 32 33  2  0  0  0
 32 34  1  0  0  0
 34 35  2  0  0  0
 35 36  1  0  0  0
 35 37  1  0  0  0
 37 38  2  0  0  0
 38 39  1  0  0  0
 39 40  2  0  0  0
 40 42  1  0  0  0
 42 43  2  0  0  0
 42 44  1  0  0  0
  5  6  1  0  0  0
  6  7  1  0  0  0
  6  8  2  0  0  0
 21 24  1  0  0  0
 24 25  2  0  0  0
 25 26  1  0  0  0
 26 27  2  0  0  0
 27 28  1  0  0  0
 27 29  1  0  0  0
 29 30  2  0  0  0
 19 15  1  0  0  0
  8  1  1  0  0  0
 30 24  1  0  0  0
 40 34  1  0  0  0
 22 23  1  0  0  0
  4  9  1  0  0  0
 36 41  1  0  0  0
 44 45  1  0  0  0
  7 10  1  0  0  0
 28 31  1  0  0  0
M  END
> <minimizedAffinity>
-7.47078

> <CNNscore>
0.3606918156

> <CNNaffinity>
5.8039045334

> <CNN_VS>
2.0934209824

> <CNNaffinity_variance>
0.1022663563

$$$$
[H]OC(=O)c1c([H])c([H])c([H])c(O[H])c1C(=O)c1c(O[H])c([H])c(C(=O)OC([H])([H])[C@]2([H])C([H])([H])C([H])([H])C([H])([H])[C@@]2([H])N([H])C(=O)c2c([H])c([H])c(O[H])c([H])c2[H])c([H])c1O[H]


 45 48  0  0  0  0  0  0  0  0999 V2000
   33.5796  -19.7555   34.8204 C   0  0  0  0  0  0  0  0  0  0  0  0
   32.2867  -19.3420   34.9409 C   0  0  0  0  0  0  0  0  0  0  0  0
   31.3661  -20.0475   35.7283 C   0  0  0  0  0  0  0  0  0  0  0  0
   30.0926  -19.5360   35.7817 O   0  0  0  0  0  0  0  0  0  0  0  0
   31.7237  -21.1876   36.4131 C   0  0  0  0  0  0  0  0  0  0  0  0
   33.0554  -21.6063   36.2824 C   0  0  0  0  0  0  0  0  0  0  0  0
   33.5376  -22.7601   36.9274 O   0  0  0  0  0  0  0  0  0  0  0  0
   33.9358  -20.8930   35.5041 C   0  0  0  0  0  0  0  0  0  0  0  0
   29.2952  -19.8225   36.2667 H   0  0  0  0  0  0  0  0  0  0  0  0
   34.4816  -23.0365   36.8214 H   0  0  0  0  0  0  0  0  0  0  0  0
   34.5633  -19.0186   33.9947 C   0  0  0  0  0  0  0  0  0  0  0  0
   34.2634  -17.8731   33.6342 O   0  0  0  0  0  0  0  0  0  0  0  0
   35.7143  -19.5615   33.6560 O   0  0  0  0  0  0  0  0  0  0  0  0
   36.9561  -19.8254   34.0985 C   0  0  0  0  0  0  0  0  0  0  0  0
   37.4651  -18.2602   35.8799 C   0  0  0  0  0  0  0  0  0  0  0  0
   38.6952  -18.5803   36.6942 C   0  0  0  0  0  0  0  0  0  0  0  0
   39.8340  -18.8048   35.7593 C   0  0  0  0  0  0  0  0  0  0  0  0
   39.2628  -18.8566   34.3487 C   0  0  0  0  0  0  0  0  0  0  0  0
   37.8237  -18.6774   34.4494 C   0  0  0  0  0  0  0  0  0  0  0  0
   35.0522  -17.3974   36.8187 O   0  0  0  0  0  0  0  0  0  0  0  0
   35.8549  -16.4873   36.4585 C   0  0  0  0  0  0  0  0  0  0  0  0
   37.1125  -16.8566   35.9645 N   0  0  0  0  0  0  0  0  0  0  0  0
   37.7961  -16.1174   35.6557 H   0  0  0  0  0  0  0  0  0  0  0  0
   35.4346  -15.1180   36.5750 C   0  0  0  0  0  0  0  0  0  0  0  0
   36.3510  -14.1231   36.8095 C   0  0  0  0  0  0  0  0  0  0  0  0
   35.9536  -12.7888   36.9266 C   0  0  0  0  0  0  0  0  0  0  0  0
   34.6239  -12.4685   36.8045 C   0  0  0  0  0  0  0  0  0  0  0  0
   34.2060  -11.1404   36.9180 O   0  0  0  0  0  0  0  0  0  0  0  0
   33.7047  -13.4698   36.5688 C   0  0  0  0  0  0  0  0  0  0  0  0
   34.0870  -14.7868   36.4521 C   0  0  0  0  0  0  0  0  0  0  0  0
   34.1502  -10.5343   36.1208 H   0  0  0  0  0  0  0  0  0  0  0  0
   30.8357  -22.0630   37.1058 C   0  0  0  0  0  0  0  0  0  0  0  0
   31.1887  -22.2511   38.3573 O   0  0  0  0  0  0  0  0  0  0  0  0
   29.6385  -22.7536   36.7027 C   0  0  0  0  0  0  0  0  0  0  0  0
   28.4570  -22.2150   37.2750 C   0  0  0  0  0  0  0  0  0  0  0  0
   28.5489  -21.1180   38.1199 O   0  0  0  0  0  0  0  0  0  0  0  0
   27.2259  -22.7372   37.0251 C   0  0  0  0  0  0  0  0  0  0  0  0
   27.1686  -23.8220   36.1852 C   0  0  0  0  0  0  0  0  0  0  0  0
   28.2835  -24.3617   35.6256 C   0  0  0  0  0  0  0  0  0  0  0  0
   29.5813  -23.8257   35.8833 C   0  0  0  0  0  0  0  0  0  0  0  0
   27.7048  -20.7457   38.5184 H   0  0  0  0  0  0  0  0  0  0  0  0
   30.7060  -24.6073   35.4212 C   0  0  0  0  0  0  0  0  0  0  0  0
   31.0369  -24.4909   34.1920 O   0  0  0  0  0  0  0  0  0  0  0  0
   31.4580  -25.4693   36.1373 O   0  0  0  0  0  0  0  0  0  0  0  0
   32.0887  -26.1624   35.7866 H   0  0  0  0  0  0  0  0  0  0  0  0
 20 21  2  0  0  0
 21 22  1  0  0  0
 22 15  1  0  0  0
 15 16  1  0  0  0
 16 17  1  0  0  0
 17 18  1  0  0  0
 18 19  1  0  0  0
 19 14  1  0  0  0
 14 13  1  0  0  0
 13 11  1  0  0  0
 11 12  2  0  0  0
 11  1  1  0  0  0
  1  2  2  0  0  0
  2  3  1  0  0  0
  3  4  1  0  0  0
  3  5  2  0  0  0
  5 32  1  0  0  0
 32 33  2  0  0  0
 32 34  1  0  0  0
 34 35  2  0  0  0
 35 36  1  0  0  0
 35 37  1  0  0  0
 37 38  2  0  0  0
 38 39  1  0  0  0
 39 40  2  0  0  0
 40 42  1  0  0  0
 42 43  2  0  0  0
 42 44  1  0  0  0
  5  6  1  0  0  0
  6  7  1  0  0  0
  6  8  2  0  0  0
 21 24  1  0  0  0
 24 25  2  0  0  0
 25 26  1  0  0  0
 26 27  2  0  0  0
 27 28  1  0  0  0
 27 29  1  0  0  0
 29 30  2  0  0  0
 19 15  1  0  0  0
  8  1  1  0  0  0
 30 24  1  0  0  0
 40 34  1  0  0  0
 22 23  1  0  0  0
  4  9  1  0  0  0
 36 41  1  0  0  0
 44 45  1  0  0  0
  7 10  1  0  0  0
 28 31  1  0  0  0
M  END
> <minimizedAffinity>
-7.56965

> <CNNscore>
0.3416794538

> <CNNaffinity>
5.5305752754

> <CNN_VS>
1.8896839619

> <CNNaffinity_variance>
0.1287779510

$$$$
[H]OC(=O)c1c([H])c([H])c([H])c(O[H])c1C(=O)c1c(O[H])c([H])c(C(=O)OC([H])([H])[C@]2([H])C([H])([H])C([H])([H])C([H])([H])[C@@]2([H])N([H])C(=O)c2c([H])c([H])c(O[H])c([H])c2[H])c([H])c1O[H]


 45 48  0  0  0  0  0  0  0  0999 V2000
   36.3416  -16.9847   36.9576 C   0  0  0  0  0  0  0  0  0  0  0  0
   36.7594  -15.7647   37.3981 C   0  0  0  0  0  0  0  0  0  0  0  0
   35.9725  -14.6178   37.2230 C   0  0  0  0  0  0  0  0  0  0  0  0
   36.4905  -13.4435   37.7118 O   0  0  0  0  0  0  0  0  0  0  0  0
   34.7459  -14.6703   36.5990 C   0  0  0  0  0  0  0  0  0  0  0  0
   34.3246  -15.9292   36.1481 C   0  0  0  0  0  0  0  0  0  0  0  0
   33.0943  -16.1085   35.4894 O   0  0  0  0  0  0  0  0  0  0  0  0
   35.1176  -17.0365   36.3354 C   0  0  0  0  0  0  0  0  0  0  0  0
   36.1353  -12.5344   37.7347 H   0  0  0  0  0  0  0  0  0  0  0  0
   32.8170  -17.0064   35.1802 H   0  0  0  0  0  0  0  0  0  0  0  0
   37.1610  -18.2048   37.1384 C   0  0  0  0  0  0  0  0  0  0  0  0
   38.2290  -18.2739   36.5165 O   0  0  0  0  0  0  0  0  0  0  0  0
   36.7682  -19.1804   37.9309 O   0  0  0  0  0  0  0  0  0  0  0  0
   35.8268  -20.1261   38.0953 C   0  0  0  0  0  0  0  0  0  0  0  0
   36.8489  -22.1990   37.3600 C   0  0  0  0  0  0  0  0  0  0  0  0
   36.1324  -23.4605   37.7773 C   0  0  0  0  0  0  0  0  0  0  0  0
   34.6981  -23.3374   37.3913 C   0  0  0  0  0  0  0  0  0  0  0  0
   34.4678  -21.9004   36.9433 C   0  0  0  0  0  0  0  0  0  0  0  0
   35.7306  -21.1915   37.0710 C   0  0  0  0  0  0  0  0  0  0  0  0
   39.4288  -21.3183   37.2322 O   0  0  0  0  0  0  0  0  0  0  0  0
   39.0119  -21.9372   36.2096 C   0  0  0  0  0  0  0  0  0  0  0  0
   37.6961  -22.4171   36.2040 N   0  0  0  0  0  0  0  0  0  0  0  0
   37.3258  -22.9323   35.3634 H   0  0  0  0  0  0  0  0  0  0  0  0
   39.9119  -22.1168   35.1038 C   0  0  0  0  0  0  0  0  0  0  0  0
   40.1238  -23.3639   34.5704 C   0  0  0  0  0  0  0  0  0  0  0  0
   40.9979  -23.5506   33.4966 C   0  0  0  0  0  0  0  0  0  0  0  0
   41.6551  -22.4677   32.9666 C   0  0  0  0  0  0  0  0  0  0  0  0
   42.5330  -22.6330   31.8927 O   0  0  0  0  0  0  0  0  0  0  0  0
   41.4407  -21.2153   33.5039 C   0  0  0  0  0  0  0  0  0  0  0  0
   40.5816  -21.0220   34.5616 C   0  0  0  0  0  0  0  0  0  0  0  0
   42.2212  -22.5718   30.9413 H   0  0  0  0  0  0  0  0  0  0  0  0
   33.9447  -13.5496   36.2290 C   0  0  0  0  0  0  0  0  0  0  0  0
   33.1260  -13.8213   35.2380 O   0  0  0  0  0  0  0  0  0  0  0  0
   33.8554  -12.2062   36.7389 C   0  0  0  0  0  0  0  0  0  0  0  0
   34.8013  -11.3199   36.1615 C   0  0  0  0  0  0  0  0  0  0  0  0
   35.6776  -11.7945   35.1958 O   0  0  0  0  0  0  0  0  0  0  0  0
   34.8831  -10.0104   36.5213 C   0  0  0  0  0  0  0  0  0  0  0  0
   34.0024   -9.5717   37.4790 C   0  0  0  0  0  0  0  0  0  0  0  0
   33.0883  -10.3983   38.0523 C   0  0  0  0  0  0  0  0  0  0  0  0
   32.9952  -11.7750   37.6866 C   0  0  0  0  0  0  0  0  0  0  0  0
   36.3424  -11.1567   34.7944 H   0  0  0  0  0  0  0  0  0  0  0  0
   32.1485  -12.6064   38.5121 C   0  0  0  0  0  0  0  0  0  0  0  0
   32.6726  -13.1247   39.5564 O   0  0  0  0  0  0  0  0  0  0  0  0
   30.8513  -12.9180   38.3078 O   0  0  0  0  0  0  0  0  0  0  0  0
   30.3255  -13.6488   38.7445 H   0  0  0  0  0  0  0  0  0  0  0  0
 20 21  2  0  0  0
 21 22  1  0  0  0
 22 15  1  0  0  0
 15 16  1  0  0  0
 16 17  1  0  0  0
 17 18  1  0  0  0
 18 19  1  0  0  0
 19 14  1  0  0  0
 14 13  1  0  0  0
 13 11  1  0  0  0
 11 12  2  0  0  0
 11  1  1  0  0  0
  1  2  2  0  0  0
  2  3  1  0  0  0
  3  4  1  0  0  0
  3  5  2  0  0  0
  5 32  1  0  0  0
 32 33  2  0  0  0
 32 34  1  0  0  0
 34 35  2  0  0  0
 35 36  1  0  0  0
 35 37  1  0  0  0
 37 38  2  0  0  0
 38 39  1  0  0  0
 39 40  2  0  0  0
 40 42  1  0  0  0
 42 43  2  0  0  0
 42 44  1  0  0  0
  5  6  1  0  0  0
  6  7  1  0  0  0
  6  8  2  0  0  0
 21 24  1  0  0  0
 24 25  2  0  0  0
 25 26  1  0  0  0
 26 27  2  0  0  0
 27 28  1  0  0  0
 27 29  1  0  0  0
 29 30  2  0  0  0
 19 15  1  0  0  0
  8  1  1  0  0  0
 30 24  1  0  0  0
 40 34  1  0  0  0
 22 23  1  0  0  0
  4  9  1  0  0  0
 36 41  1  0  0  0
 44 45  1  0  0  0
  7 10  1  0  0  0
 28 31  1  0  0  0
M  END
> <minimizedAffinity>
-7.32542

> <CNNscore>
0.3204340339

> <CNNaffinity>
5.3514556885

> <CNN_VS>
1.7147885561

> <CNNaffinity_variance>
0.0350832120

$$$$
[H]OC(=O)c1c([H])c([H])c([H])c(O[H])c1C(=O)c1c(O[H])c([H])c(C(=O)OC([H])([H])[C@]2([H])C([H])([H])C([H])([H])C([H])([H])[C@@]2([H])N([H])C(=O)c2c([H])c([H])c(O[H])c([H])c2[H])c([H])c1O[H]


 45 48  0  0  0  0  0  0  0  0999 V2000
   37.1165  -20.0109   37.2931 C   0  0  0  0  0  0  0  0  0  0  0  0
   37.3517  -20.4389   36.0208 C   0  0  0  0  0  0  0  0  0  0  0  0
   38.5209  -21.1388   35.6915 C   0  0  0  0  0  0  0  0  0  0  0  0
   38.6496  -21.5264   34.3802 O   0  0  0  0  0  0  0  0  0  0  0  0
   39.4831  -21.4242   36.6346 C   0  0  0  0  0  0  0  0  0  0  0  0
   39.2334  -20.9793   37.9404 C   0  0  0  0  0  0  0  0  0  0  0  0
   40.1449  -21.2040   38.9884 O   0  0  0  0  0  0  0  0  0  0  0  0
   38.0768  -20.2965   38.2336 C   0  0  0  0  0  0  0  0  0  0  0  0
   39.3425  -22.0335   33.9158 H   0  0  0  0  0  0  0  0  0  0  0  0
   39.9476  -20.8814   39.9026 H   0  0  0  0  0  0  0  0  0  0  0  0
   35.8848  -19.2734   37.6557 C   0  0  0  0  0  0  0  0  0  0  0  0
   36.0099  -18.1000   38.0293 O   0  0  0  0  0  0  0  0  0  0  0  0
   34.7003  -19.8444   37.5839 O   0  0  0  0  0  0  0  0  0  0  0  0
   33.7505  -20.2578   36.7269 C   0  0  0  0  0  0  0  0  0  0  0  0
   33.6171  -18.2724   35.3404 C   0  0  0  0  0  0  0  0  0  0  0  0
   33.1181  -18.4950   33.9332 C   0  0  0  0  0  0  0  0  0  0  0  0
   31.8391  -19.2570   34.0017 C   0  0  0  0  0  0  0  0  0  0  0  0
   31.6581  -19.7160   35.4423 C   0  0  0  0  0  0  0  0  0  0  0  0
   32.8051  -19.2459   36.2018 C   0  0  0  0  0  0  0  0  0  0  0  0
   35.6698  -16.4751   35.4056 O   0  0  0  0  0  0  0  0  0  0  0  0
   34.5423  -16.0296   35.7700 C   0  0  0  0  0  0  0  0  0  0  0  0
   33.4424  -16.8968   35.7633 N   0  0  0  0  0  0  0  0  0  0  0  0
   32.4950  -16.5499   36.0653 H   0  0  0  0  0  0  0  0  0  0  0  0
   34.4475  -14.6534   36.1728 C   0  0  0  0  0  0  0  0  0  0  0  0
   35.5646  -13.8562   36.2061 C   0  0  0  0  0  0  0  0  0  0  0  0
   35.4845  -12.5175   36.5979 C   0  0  0  0  0  0  0  0  0  0  0  0
   34.2674  -11.9916   36.9552 C   0  0  0  0  0  0  0  0  0  0  0  0
   34.1660  -10.6555   37.3498 O   0  0  0  0  0  0  0  0  0  0  0  0
   33.1461  -12.7944   36.9212 C   0  0  0  0  0  0  0  0  0  0  0  0
   33.2154  -14.1141   36.5365 C   0  0  0  0  0  0  0  0  0  0  0  0
   33.9886   -9.9217   36.6893 H   0  0  0  0  0  0  0  0  0  0  0  0
   40.7700  -21.9831   36.3769 C   0  0  0  0  0  0  0  0  0  0  0  0
   41.7425  -21.1248   36.5857 O   0  0  0  0  0  0  0  0  0  0  0  0
   41.1959  -23.2917   35.9539 C   0  0  0  0  0  0  0  0  0  0  0  0
   41.2472  -24.2370   37.0109 C   0  0  0  0  0  0  0  0  0  0  0  0
   40.8890  -23.8447   38.2929 O   0  0  0  0  0  0  0  0  0  0  0  0
   41.6376  -25.5254   36.8144 C   0  0  0  0  0  0  0  0  0  0  0  0
   41.9856  -25.8822   35.5349 C   0  0  0  0  0  0  0  0  0  0  0  0
   41.9500  -24.9976   34.5036 C   0  0  0  0  0  0  0  0  0  0  0  0
   41.5463  -23.6421   34.6975 C   0  0  0  0  0  0  0  0  0  0  0  0
   40.9291  -24.5238   39.0326 H   0  0  0  0  0  0  0  0  0  0  0  0
   41.7593  -22.7401   33.5882 C   0  0  0  0  0  0  0  0  0  0  0  0
   42.9604  -22.3716   33.3529 O   0  0  0  0  0  0  0  0  0  0  0  0
   40.8285  -22.2204   32.7605 O   0  0  0  0  0  0  0  0  0  0  0  0
   40.9339  -21.4443   32.1379 H   0  0  0  0  0  0  0  0  0  0  0  0
 20 21  2  0  0  0
 21 22  1  0  0  0
 22 15  1  0  0  0
 15 16  1  0  0  0
 16 17  1  0  0  0
 17 18  1  0  0  0
 18 19  1  0  0  0
 19 14  1  0  0  0
 14 13  1  0  0  0
 13 11  1  0  0  0
 11 12  2  0  0  0
 11  1  1  0  0  0
  1  2  2  0  0  0
  2  3  1  0  0  0
  3  4  1  0  0  0
  3  5  2  0  0  0
  5 32  1  0  0  0
 32 33  2  0  0  0
 32 34  1  0  0  0
 34 35  2  0  0  0
 35 36  1  0  0  0
 35 37  1  0  0  0
 37 38  2  0  0  0
 38 39  1  0  0  0
 39 40  2  0  0  0
 40 42  1  0  0  0
 42 43  2  0  0  0
 42 44  1  0  0  0
  5  6  1  0  0  0
  6  7  1  0  0  0
  6  8  2  0  0  0
 21 24  1  0  0  0
 24 25  2  0  0  0
 25 26  1  0  0  0
 26 27  2  0  0  0
 27 28  1  0  0  0
 27 29  1  0  0  0
 29 30  2  0  0  0
 19 15  1  0  0  0
  8  1  1  0  0  0
 30 24  1  0  0  0
 40 34  1  0  0  0
 22 23  1  0  0  0
  4  9  1  0  0  0
 36 41  1  0  0  0
 44 45  1  0  0  0
  7 10  1  0  0  0
 28 31  1  0  0  0
M  END
> <minimizedAffinity>
-6.35624

> <CNNscore>
0.3022220731

> <CNNaffinity>
5.4700479507

> <CNN_VS>
1.6531692743

> <CNNaffinity_variance>
0.1750115603

$$$$
[H]OC(=O)c1c([H])c([H])c([H])c(O[H])c1C(=O)c1c(O[H])c([H])c(C(=O)OC([H])([H])[C@]2([H])C([H])([H])C([H])([H])C([H])([H])[C@@]2([H])N([H])C(=O)c2c([H])c([H])c(O[H])c([H])c2[H])c([H])c1O[H]


 45 48  0  0  0  0  0  0  0  0999 V2000
   35.7734  -20.8362   39.1307 C   0  0  0  0  0  0  0  0  0  0  0  0
   36.5951  -21.5921   39.9121 C   0  0  0  0  0  0  0  0  0  0  0  0
   37.9789  -21.6302   39.6914 C   0  0  0  0  0  0  0  0  0  0  0  0
   38.7099  -22.4211   40.5437 O   0  0  0  0  0  0  0  0  0  0  0  0
   38.5700  -20.9093   38.6777 C   0  0  0  0  0  0  0  0  0  0  0  0
   37.7171  -20.1354   37.8782 C   0  0  0  0  0  0  0  0  0  0  0  0
   38.2020  -19.3619   36.8075 O   0  0  0  0  0  0  0  0  0  0  0  0
   36.3639  -20.1168   38.1198 C   0  0  0  0  0  0  0  0  0  0  0  0
   39.6684  -22.5934   40.6115 H   0  0  0  0  0  0  0  0  0  0  0  0
   37.5816  -18.8229   36.2568 H   0  0  0  0  0  0  0  0  0  0  0  0
   34.3106  -20.7841   39.3543 C   0  0  0  0  0  0  0  0  0  0  0  0
   33.9154  -20.5888   40.5109 O   0  0  0  0  0  0  0  0  0  0  0  0
   33.4614  -20.9402   38.3599 O   0  0  0  0  0  0  0  0  0  0  0  0
   33.3764  -21.1582   37.0360 C   0  0  0  0  0  0  0  0  0  0  0  0
   33.7974  -19.3529   35.4721 C   0  0  0  0  0  0  0  0  0  0  0  0
   33.6019  -19.6965   34.0153 C   0  0  0  0  0  0  0  0  0  0  0  0
   32.2572  -20.3186   33.8541 C   0  0  0  0  0  0  0  0  0  0  0  0
   31.7050  -20.5793   35.2490 C   0  0  0  0  0  0  0  0  0  0  0  0
   32.7018  -20.1321   36.2081 C   0  0  0  0  0  0  0  0  0  0  0  0
   35.9854  -17.7283   35.6178 O   0  0  0  0  0  0  0  0  0  0  0  0
   34.8677  -17.1535   35.7686 C   0  0  0  0  0  0  0  0  0  0  0  0
   33.7007  -17.9256   35.7074 N   0  0  0  0  0  0  0  0  0  0  0  0
   32.7594  -17.4704   35.8330 H   0  0  0  0  0  0  0  0  0  0  0  0
   34.8525  -15.7345   35.9951 C   0  0  0  0  0  0  0  0  0  0  0  0
   33.6649  -15.0480   36.0493 C   0  0  0  0  0  0  0  0  0  0  0  0
   33.6381  -13.6682   36.2670 C   0  0  0  0  0  0  0  0  0  0  0  0
   34.8202  -12.9886   36.4297 C   0  0  0  0  0  0  0  0  0  0  0  0
   34.8151  -11.6090   36.6487 O   0  0  0  0  0  0  0  0  0  0  0  0
   36.0125  -13.6803   36.3750 C   0  0  0  0  0  0  0  0  0  0  0  0
   36.0485  -15.0395   36.1610 C   0  0  0  0  0  0  0  0  0  0  0  0
   34.7742  -11.2210   37.5728 H   0  0  0  0  0  0  0  0  0  0  0  0
   39.9334  -21.0009   38.2683 C   0  0  0  0  0  0  0  0  0  0  0  0
   40.2005  -22.1329   37.6572 O   0  0  0  0  0  0  0  0  0  0  0  0
   41.0471  -20.0958   38.3831 C   0  0  0  0  0  0  0  0  0  0  0  0
   41.4688  -19.8875   39.7218 C   0  0  0  0  0  0  0  0  0  0  0  0
   40.8153  -20.5488   40.7521 O   0  0  0  0  0  0  0  0  0  0  0  0
   42.4990  -19.0569   40.0377 C   0  0  0  0  0  0  0  0  0  0  0  0
   43.1250  -18.4176   38.9962 C   0  0  0  0  0  0  0  0  0  0  0  0
   42.7406  -18.5945   37.7045 C   0  0  0  0  0  0  0  0  0  0  0  0
   41.6587  -19.4600   37.3605 C   0  0  0  0  0  0  0  0  0  0  0  0
   41.1238  -20.3932   41.6957 H   0  0  0  0  0  0  0  0  0  0  0  0
   41.1941  -19.4004   35.9930 C   0  0  0  0  0  0  0  0  0  0  0  0
   41.5732  -20.3308   35.2026 O   0  0  0  0  0  0  0  0  0  0  0  0
   40.4033  -18.4607   35.4334 O   0  0  0  0  0  0  0  0  0  0  0  0
   40.2533  -18.2944   34.4581 H   0  0  0  0  0  0  0  0  0  0  0  0
 20 21  2  0  0  0
 21 22  1  0  0  0
 22 15  1  0  0  0
 15 16  1  0  0  0
 16 17  1  0  0  0
 17 18  1  0  0  0
 18 19  1  0  0  0
 19 14  1  0  0  0
 14 13  1  0  0  0
 13 11  1  0  0  0
 11 12  2  0  0  0
 11  1  1  0  0  0
  1  2  2  0  0  0
  2  3  1  0  0  0
  3  4  1  0  0  0
  3  5  2  0  0  0
  5 32  1  0  0  0
 32 33  2  0  0  0
 32 34  1  0  0  0
 34 35  2  0  0  0
 35 36  1  0  0  0
 35 37  1  0  0  0
 37 38  2  0  0  0
 38 39  1  0  0  0
 39 40  2  0  0  0
 40 42  1  0  0  0
 42 43  2  0  0  0
 42 44  1  0  0  0
  5  6  1  0  0  0
  6  7  1  0  0  0
  6  8  2  0  0  0
 21 24  1  0  0  0
 24 25  2  0  0  0
 25 26  1  0  0  0
 26 27  2  0  0  0
 27 28  1  0  0  0
 27 29  1  0  0  0
 29 30  2  0  0  0
 19 15  1  0  0  0
  8  1  1  0  0  0
 30 24  1  0  0  0
 40 34  1  0  0  0
 22 23  1  0  0  0
  4  9  1  0  0  0
 36 41  1  0  0  0
 44 45  1  0  0  0
  7 10  1  0  0  0
 28 31  1  0  0  0
M  END
> <minimizedAffinity>
-7.90710

> <CNNscore>
0.2855048180

> <CNNaffinity>
5.1872396469

> <CNN_VS>
1.4809819460

> <CNNaffinity_variance>
0.4606537223

$$$$
[H]OC(=O)c1c([H])c([H])c([H])c(O[H])c1C(=O)c1c(O[H])c([H])c(C(=O)OC([H])([H])[C@]2([H])C([H])([H])C([H])([H])C([H])([H])[C@@]2([H])N([H])C(=O)c2c([H])c([H])c(O[H])c([H])c2[H])c([H])c1O[H]


 45 48  0  0  0  0  0  0  0  0999 V2000
   36.2888  -16.9321   36.8796 C   0  0  0  0  0  0  0  0  0  0  0  0
   36.7352  -15.7235   37.3237 C   0  0  0  0  0  0  0  0  0  0  0  0
   35.9663  -14.5614   37.1705 C   0  0  0  0  0  0  0  0  0  0  0  0
   36.5128  -13.4007   37.6608 O   0  0  0  0  0  0  0  0  0  0  0  0
   34.7294  -14.5867   36.5654 C   0  0  0  0  0  0  0  0  0  0  0  0
   34.2787  -15.8340   36.1108 C   0  0  0  0  0  0  0  0  0  0  0  0
   33.0352  -15.9857   35.4701 O   0  0  0  0  0  0  0  0  0  0  0  0
   35.0545  -16.9567   36.2764 C   0  0  0  0  0  0  0  0  0  0  0  0
   36.1743  -12.4857   37.6969 H   0  0  0  0  0  0  0  0  0  0  0  0
   32.7371  -16.8759   35.1578 H   0  0  0  0  0  0  0  0  0  0  0  0
   37.0889  -18.1681   37.0374 C   0  0  0  0  0  0  0  0  0  0  0  0
   38.1441  -18.2521   36.3958 O   0  0  0  0  0  0  0  0  0  0  0  0
   36.6927  -19.1419   37.8304 O   0  0  0  0  0  0  0  0  0  0  0  0
   35.7216  -19.5138   38.6826 C   0  0  0  0  0  0  0  0  0  0  0  0
   35.1220  -21.3809   37.2555 C   0  0  0  0  0  0  0  0  0  0  0  0
   36.2264  -22.3743   36.9869 C   0  0  0  0  0  0  0  0  0  0  0  0
   36.8135  -22.7906   38.2921 C   0  0  0  0  0  0  0  0  0  0  0  0
   36.2329  -21.8792   39.3649 C   0  0  0  0  0  0  0  0  0  0  0  0
   35.3347  -20.9432   38.7089 C   0  0  0  0  0  0  0  0  0  0  0  0
   33.1958  -20.1845   35.7368 O   0  0  0  0  0  0  0  0  0  0  0  0
   32.8718  -21.2927   36.2558 C   0  0  0  0  0  0  0  0  0  0  0  0
   33.8106  -21.9636   37.0497 N   0  0  0  0  0  0  0  0  0  0  0  0
   33.5630  -22.8855   37.4946 H   0  0  0  0  0  0  0  0  0  0  0  0
   31.5541  -21.8078   36.0036 C   0  0  0  0  0  0  0  0  0  0  0  0
   31.3658  -23.1379   35.7209 C   0  0  0  0  0  0  0  0  0  0  0  0
   30.0897  -23.6493   35.4721 C   0  0  0  0  0  0  0  0  0  0  0  0
   29.0064  -22.8062   35.5116 C   0  0  0  0  0  0  0  0  0  0  0  0
   27.7221  -23.2977   35.2660 O   0  0  0  0  0  0  0  0  0  0  0  0
   29.1978  -21.4700   35.7958 C   0  0  0  0  0  0  0  0  0  0  0  0
   30.4512  -20.9575   36.0422 C   0  0  0  0  0  0  0  0  0  0  0  0
   27.1399  -23.6466   36.0046 H   0  0  0  0  0  0  0  0  0  0  0  0
   33.9427  -13.4488   36.2174 C   0  0  0  0  0  0  0  0  0  0  0  0
   33.0363  -13.7229   35.3067 O   0  0  0  0  0  0  0  0  0  0  0  0
   33.9451  -12.0854   36.6800 C   0  0  0  0  0  0  0  0  0  0  0  0
   34.9237  -11.2767   36.0461 C   0  0  0  0  0  0  0  0  0  0  0  0
   35.7438  -11.8352   35.0759 O   0  0  0  0  0  0  0  0  0  0  0  0
   35.0908   -9.9624   36.3554 C   0  0  0  0  0  0  0  0  0  0  0  0
   34.2641   -9.4398   37.3192 C   0  0  0  0  0  0  0  0  0  0  0  0
   33.3206  -10.1909   37.9460 C   0  0  0  0  0  0  0  0  0  0  0  0
   33.1382  -11.5719   37.6335 C   0  0  0  0  0  0  0  0  0  0  0  0
   36.4326  -11.2518   34.6341 H   0  0  0  0  0  0  0  0  0  0  0  0
   32.2687  -12.3229   38.5106 C   0  0  0  0  0  0  0  0  0  0  0  0
   31.1015  -12.6100   38.0759 O   0  0  0  0  0  0  0  0  0  0  0  0
   32.5375  -12.7580   39.7596 O   0  0  0  0  0  0  0  0  0  0  0  0
   31.8841  -13.0846   40.4435 H   0  0  0  0  0  0  0  0  0  0  0  0
 20 21  2  0  0  0
 21 22  1  0  0  0
 22 15  1  0  0  0
 15 16  1  0  0  0
 16 17  1  0  0  0
 17 18  1  0  0  0
 18 19  1  0  0  0
 19 14  1  0  0  0
 14 13  1  0  0  0
 13 11  1  0  0  0
 11 12  2  0  0  0
 11  1  1  0  0  0
  1  2  2  0  0  0
  2  3  1  0  0  0
  3  4  1  0  0  0
  3  5  2  0  0  0
  5 32  1  0  0  0
 32 33  2  0  0  0
 32 34  1  0  0  0
 34 35  2  0  0  0
 35 36  1  0  0  0
 35 37  1  0  0  0
 37 38  2  0  0  0
 38 39  1  0  0  0
 39 40  2  0  0  0
 40 42  1  0  0  0
 42 43  2  0  0  0
 42 44  1  0  0  0
  5  6  1  0  0  0
  6  7  1  0  0  0
  6  8  2  0  0  0
 21 24  1  0  0  0
 24 25  2  0  0  0
 25 26  1  0  0  0
 26 27  2  0  0  0
 27 28  1  0  0  0
 27 29  1  0  0  0
 29 30  2  0  0  0
 19 15  1  0  0  0
  8  1  1  0  0  0
 30 24  1  0  0  0
 40 34  1  0  0  0
 22 23  1  0  0  0
  4  9  1  0  0  0
 36 41  1  0  0  0
 44 45  1  0  0  0
  7 10  1  0  0  0
 28 31  1  0  0  0
M  END
> <minimizedAffinity>
-7.53747

> <CNNscore>
0.2844878435

> <CNNaffinity>
5.3647665977

> <CNN_VS>
1.5262109041

> <CNNaffinity_variance>
0.0100540165

$$$$
[H]OC(=O)c1c([H])c([H])c([H])c(O[H])c1C(=O)c1c(O[H])c([H])c(C(=O)OC([H])([H])[C@]2([H])C([H])([H])C([H])([H])C([H])([H])[C@@]2([H])N([H])C(=O)c2c([H])c([H])c(O[H])c([H])c2[H])c([H])c1O[H]


 45 48  0  0  0  0  0  0  0  0999 V2000
   37.2158  -23.8374   37.6722 C   0  0  0  0  0  0  0  0  0  0  0  0
   35.9531  -24.1459   37.2628 C   0  0  0  0  0  0  0  0  0  0  0  0
   34.9859  -23.1499   37.0689 C   0  0  0  0  0  0  0  0  0  0  0  0
   33.7492  -23.5754   36.6496 O   0  0  0  0  0  0  0  0  0  0  0  0
   35.2653  -21.8185   37.2836 C   0  0  0  0  0  0  0  0  0  0  0  0
   36.5663  -21.5105   37.7056 C   0  0  0  0  0  0  0  0  0  0  0  0
   36.9691  -20.1874   37.9645 O   0  0  0  0  0  0  0  0  0  0  0  0
   37.4940  -22.5088   37.8858 C   0  0  0  0  0  0  0  0  0  0  0  0
   32.9335  -23.0877   36.4264 H   0  0  0  0  0  0  0  0  0  0  0  0
   37.8928  -19.9933   38.2610 H   0  0  0  0  0  0  0  0  0  0  0  0
   38.2482  -24.8788   37.8781 C   0  0  0  0  0  0  0  0  0  0  0  0
   38.0982  -25.6520   38.8329 O   0  0  0  0  0  0  0  0  0  0  0  0
   39.2876  -24.9785   37.0756 O   0  0  0  0  0  0  0  0  0  0  0  0
   40.0708  -24.2851   36.2310 C   0  0  0  0  0  0  0  0  0  0  0  0
   40.9614  -22.4035   37.4754 C   0  0  0  0  0  0  0  0  0  0  0  0
   41.2435  -22.6650   38.9351 C   0  0  0  0  0  0  0  0  0  0  0  0
   42.0795  -23.8943   39.0406 C   0  0  0  0  0  0  0  0  0  0  0  0
   42.1242  -24.5356   37.6602 C   0  0  0  0  0  0  0  0  0  0  0  0
   41.3273  -23.7119   36.7659 C   0  0  0  0  0  0  0  0  0  0  0  0
   39.8077  -20.0391   36.7498 O   0  0  0  0  0  0  0  0  0  0  0  0
   41.0655  -20.0955   36.6192 C   0  0  0  0  0  0  0  0  0  0  0  0
   41.7258  -21.2796   36.9712 N   0  0  0  0  0  0  0  0  0  0  0  0
   42.7714  -21.3515   36.8683 H   0  0  0  0  0  0  0  0  0  0  0  0
   41.7543  -18.9392   36.1155 C   0  0  0  0  0  0  0  0  0  0  0  0
   41.8399  -18.7098   34.7647 C   0  0  0  0  0  0  0  0  0  0  0  0
   42.5086  -17.5901   34.2637 C   0  0  0  0  0  0  0  0  0  0  0  0
   43.0892  -16.7048   35.1382 C   0  0  0  0  0  0  0  0  0  0  0  0
   43.7622  -15.5790   34.6576 O   0  0  0  0  0  0  0  0  0  0  0  0
   43.0020  -16.9371   36.4952 C   0  0  0  0  0  0  0  0  0  0  0  0
   42.3454  -18.0373   36.9977 C   0  0  0  0  0  0  0  0  0  0  0  0
   43.2908  -14.7067   34.5057 H   0  0  0  0  0  0  0  0  0  0  0  0
   34.3194  -20.7508   37.2721 C   0  0  0  0  0  0  0  0  0  0  0  0
   34.1583  -20.2082   38.4578 O   0  0  0  0  0  0  0  0  0  0  0  0
   33.5345  -20.1569   36.2214 C   0  0  0  0  0  0  0  0  0  0  0  0
   32.1619  -20.5127   36.2730 C   0  0  0  0  0  0  0  0  0  0  0  0
   31.7129  -21.3484   37.2859 O   0  0  0  0  0  0  0  0  0  0  0  0
   31.2601  -20.0620   35.3595 C   0  0  0  0  0  0  0  0  0  0  0  0
   31.7356  -19.2371   34.3701 C   0  0  0  0  0  0  0  0  0  0  0  0
   33.0454  -18.8825   34.2931 C   0  0  0  0  0  0  0  0  0  0  0  0
   34.0021  -19.3520   35.2429 C   0  0  0  0  0  0  0  0  0  0  0  0
   30.7384  -21.5924   37.3117 H   0  0  0  0  0  0  0  0  0  0  0  0
   35.3922  -19.0978   34.9386 C   0  0  0  0  0  0  0  0  0  0  0  0
   36.0477  -18.3644   35.7549 O   0  0  0  0  0  0  0  0  0  0  0  0
   36.0948  -19.5384   33.8738 O   0  0  0  0  0  0  0  0  0  0  0  0
   36.9781  -19.2011   33.5464 H   0  0  0  0  0  0  0  0  0  0  0  0
 20 21  2  0  0  0
 21 22  1  0  0  0
 22 15  1  0  0  0
 15 16  1  0  0  0
 16 17  1  0  0  0
 17 18  1  0  0  0
 18 19  1  0  0  0
 19 14  1  0  0  0
 14 13  1  0  0  0
 13 11  1  0  0  0
 11 12  2  0  0  0
 11  1  1  0  0  0
  1  2  2  0  0  0
  2  3  1  0  0  0
  3  4  1  0  0  0
  3  5  2  0  0  0
  5 32  1  0  0  0
 32 33  2  0  0  0
 32 34  1  0  0  0
 34 35  2  0  0  0
 35 36  1  0  0  0
 35 37  1  0  0  0
 37 38  2  0  0  0
 38 39  1  0  0  0
 39 40  2  0  0  0
 40 42  1  0  0  0
 42 43  2  0  0  0
 42 44  1  0  0  0
  5  6  1  0  0  0
  6  7  1  0  0  0
  6  8  2  0  0  0
 21 24  1  0  0  0
 24 25  2  0  0  0
 25 26  1  0  0  0
 26 27  2  0  0  0
 27 28  1  0  0  0
 27 29  1  0  0  0
 29 30  2  0  0  0
 19 15  1  0  0  0
  8  1  1  0  0  0
 30 24  1  0  0  0
 40 34  1  0  0  0
 22 23  1  0  0  0
  4  9  1  0  0  0
 36 41  1  0  0  0
 44 45  1  0  0  0
  7 10  1  0  0  0
 28 31  1  0  0  0
M  END
> <minimizedAffinity>
-5.41751

> <CNNscore>
0.2459819913

> <CNNaffinity>
4.9265532494

> <CNN_VS>
1.2118433714

> <CNNaffinity_variance>
0.0390374586

$$$$
[H]OC(=O)C([H])([H])C([H])([H])c1c2c(n([H])c1C([H])=C1C(=O)N([H])c3c([H])c([H])c(S(=O)(=O)N([H])C([H])([H])[H])c([H])c31)C([H])([H])C([H])([H])C([H])([H])C2=O


 35 38  0  0  0  0  0  0  0  0999 V2000
   35.4882  -16.2485   36.5733 C   0  0  0  0  0  0  0  0  0  0  0  0
   34.3446  -16.5018   35.8466 C   0  0  0  0  0  0  0  0  0  0  0  0
   33.9185  -17.7866   35.6132 C   0  0  0  0  0  0  0  0  0  0  0  0
   34.6234  -18.8942   36.1011 C   0  0  0  0  0  0  0  0  0  0  0  0
   35.7661  -18.6474   36.8273 C   0  0  0  0  0  0  0  0  0  0  0  0
   36.1691  -17.3306   37.0447 C   0  0  0  0  0  0  0  0  0  0  0  0
   36.3820  -19.9162   37.2685 C   0  0  0  0  0  0  0  0  0  0  0  0
   37.4612  -20.0348   37.9984 C   0  0  0  0  0  0  0  0  0  0  0  0
   35.4854  -20.9261   36.7284 C   0  0  0  0  0  0  0  0  0  0  0  0
   35.5915  -22.1739   36.8440 O   0  0  0  0  0  0  0  0  0  0  0  0
   34.4111  -20.2877   36.0139 N   0  0  0  0  0  0  0  0  0  0  0  0
   33.6204  -20.7425   35.5211 H   0  0  0  0  0  0  0  0  0  0  0  0
   38.0884  -21.2641   38.4416 C   0  0  0  0  0  0  0  0  0  0  0  0
   39.0102  -22.0636   37.9090 N   0  0  0  0  0  0  0  0  0  0  0  0
   39.2577  -23.1236   38.7026 C   0  0  0  0  0  0  0  0  0  0  0  0
   38.4583  -23.0210   39.8208 C   0  0  0  0  0  0  0  0  0  0  0  0
   37.7322  -21.8625   39.6550 C   0  0  0  0  0  0  0  0  0  0  0  0
   38.5534  -24.0622   40.8283 C   0  0  0  0  0  0  0  0  0  0  0  0
   38.2866  -23.7500   42.0143 O   0  0  0  0  0  0  0  0  0  0  0  0
   38.9500  -25.4604   40.5002 C   0  0  0  0  0  0  0  0  0  0  0  0
   39.2908  -25.5212   39.0047 C   0  0  0  0  0  0  0  0  0  0  0  0
   40.1602  -24.3135   38.6331 C   0  0  0  0  0  0  0  0  0  0  0  0
   39.5061  -21.9235   37.0240 H   0  0  0  0  0  0  0  0  0  0  0  0
   36.7537  -21.3686   40.6241 C   0  0  0  0  0  0  0  0  0  0  0  0
   35.4135  -22.0657   40.5579 C   0  0  0  0  0  0  0  0  0  0  0  0
   34.4022  -21.0362   40.2365 C   0  0  0  0  0  0  0  0  0  0  0  0
   34.4991  -19.8762   40.6796 O   0  0  0  0  0  0  0  0  0  0  0  0
   33.3307  -21.3650   39.4309 O   0  0  0  0  0  0  0  0  0  0  0  0
   32.6678  -22.0982   39.6450 H   0  0  0  0  0  0  0  0  0  0  0  0
   36.0490  -14.6321   36.8935 S   0  0  0  0  0  0  0  0  0  0  0  0
   35.1544  -14.0525   37.9533 O   0  0  0  0  0  0  0  0  0  0  0  0
   35.9477  -13.7752   35.6826 O   0  0  0  0  0  0  0  0  0  0  0  0
   38.2197  -13.2495   37.4415 C   0  0  0  0  0  0  0  0  0  0  0  0
   37.6574  -14.5863   37.4913 N   0  0  0  0  0  0  0  0  0  0  0  0
   38.2734  -15.3017   37.0995 H   0  0  0  0  0  0  0  0  0  0  0  0
 33 34  1  0  0  0
 34 30  1  0  0  0
 30 31  2  0  0  0
 30 32  2  0  0  0
 30  1  1  0  0  0
  1  2  2  0  0  0
  2  3  1  0  0  0
  3  4  2  0  0  0
  4  5  1  0  0  0
  5  6  2  0  0  0
  5  7  1  0  0  0
  7  8  2  0  0  0
  8 13  1  0  0  0
 13 14  1  0  0  0
 14 15  1  0  0  0
 15 16  2  0  0  0
 16 17  1  0  0  0
 17 24  1  0  0  0
 24 25  1  0  0  0
 25 26  1  0  0  0
 26 27  2  0  0  0
 26 28  1  0  0  0
 16 18  1  0  0  0
 18 19  2  0  0  0
 18 20  1  0  0  0
 20 21  1  0  0  0
 21 22  1  0  0  0
  7  9  1  0  0  0
  9 10  2  0  0  0
  9 11  1  0  0  0
  6  1  1  0  0  0
 17 13  2  0  0  0
 11  4  1  0  0  0
 22 15  1  0  0  0
 34 35  1  0  0  0
 14 23  1  0  0  0
 28 29  1  0  0  0
 11 12  1  0  0  0
M  END
> <minimizedAffinity>
-5.58794

> <CNNscore>
0.5540785193

> <CNNaffinity>
5.1867461205

> <CNN_VS>
2.8738646507

> <CNNaffinity_variance>
0.1516059339

$$$$
[H]OC(=O)C([H])([H])C([H])([H])c1c2c(n([H])c1C([H])=C1C(=O)N([H])c3c([H])c([H])c(S(=O)(=O)N([H])C([H])([H])[H])c([H])c31)C([H])([H])C([H])([H])C([H])([H])C2=O


 35 38  0  0  0  0  0  0  0  0999 V2000
   36.3961  -18.8729   36.7878 C   0  0  0  0  0  0  0  0  0  0  0  0
   35.3046  -18.9385   37.6271 C   0  0  0  0  0  0  0  0  0  0  0  0
   35.2851  -19.7888   38.7058 C   0  0  0  0  0  0  0  0  0  0  0  0
   36.3691  -20.6249   39.0014 C   0  0  0  0  0  0  0  0  0  0  0  0
   37.4617  -20.5639   38.1669 C   0  0  0  0  0  0  0  0  0  0  0  0
   37.4469  -19.6892   37.0812 C   0  0  0  0  0  0  0  0  0  0  0  0
   38.5111  -21.5003   38.6201 C   0  0  0  0  0  0  0  0  0  0  0  0
   39.6840  -21.6687   38.0656 C   0  0  0  0  0  0  0  0  0  0  0  0
   37.9227  -22.1124   39.8010 C   0  0  0  0  0  0  0  0  0  0  0  0
   38.4442  -22.9837   40.5429 O   0  0  0  0  0  0  0  0  0  0  0  0
   36.6088  -21.5683   40.0248 N   0  0  0  0  0  0  0  0  0  0  0  0
   35.9458  -21.8072   40.7852 H   0  0  0  0  0  0  0  0  0  0  0  0
   40.7290  -22.5810   38.4859 C   0  0  0  0  0  0  0  0  0  0  0  0
   41.2662  -22.8732   39.6685 N   0  0  0  0  0  0  0  0  0  0  0  0
   42.2474  -23.7883   39.5489 C   0  0  0  0  0  0  0  0  0  0  0  0
   42.3664  -24.1212   38.2166 C   0  0  0  0  0  0  0  0  0  0  0  0
   41.4197  -23.3681   37.5582 C   0  0  0  0  0  0  0  0  0  0  0  0
   43.3711  -25.1005   37.8427 C   0  0  0  0  0  0  0  0  0  0  0  0
   43.1570  -25.7906   36.8164 O   0  0  0  0  0  0  0  0  0  0  0  0
   44.6217  -25.3041   38.6263 C   0  0  0  0  0  0  0  0  0  0  0  0
   44.5681  -24.3884   39.8571 C   0  0  0  0  0  0  0  0  0  0  0  0
   43.1765  -24.4779   40.4957 C   0  0  0  0  0  0  0  0  0  0  0  0
   40.9913  -22.4912   40.5781 H   0  0  0  0  0  0  0  0  0  0  0  0
   41.2009  -23.4174   36.1125 C   0  0  0  0  0  0  0  0  0  0  0  0
   42.0931  -22.4877   35.3212 C   0  0  0  0  0  0  0  0  0  0  0  0
   41.4492  -22.2800   34.0066 C   0  0  0  0  0  0  0  0  0  0  0  0
   40.2398  -22.5228   33.8350 O   0  0  0  0  0  0  0  0  0  0  0  0
   42.2009  -21.8085   32.9492 O   0  0  0  0  0  0  0  0  0  0  0  0
   43.0233  -22.2743   32.5894 H   0  0  0  0  0  0  0  0  0  0  0  0
   36.4546  -17.7997   35.4186 S   0  0  0  0  0  0  0  0  0  0  0  0
   37.6003  -18.2445   34.5533 O   0  0  0  0  0  0  0  0  0  0  0  0
   36.7111  -16.3975   35.8418 O   0  0  0  0  0  0  0  0  0  0  0  0
   34.8171  -19.1660   33.8774 C   0  0  0  0  0  0  0  0  0  0  0  0
   35.0307  -17.8550   34.4618 N   0  0  0  0  0  0  0  0  0  0  0  0
   34.9449  -17.0907   33.7887 H   0  0  0  0  0  0  0  0  0  0  0  0
 33 34  1  0  0  0
 34 30  1  0  0  0
 30 31  2  0  0  0
 30 32  2  0  0  0
 30  1  1  0  0  0
  1  2  2  0  0  0
  2  3  1  0  0  0
  3  4  2  0  0  0
  4  5  1  0  0  0
  5  6  2  0  0  0
  5  7  1  0  0  0
  7  8  2  0  0  0
  8 13  1  0  0  0
 13 14  1  0  0  0
 14 15  1  0  0  0
 15 16  2  0  0  0
 16 17  1  0  0  0
 17 24  1  0  0  0
 24 25  1  0  0  0
 25 26  1  0  0  0
 26 27  2  0  0  0
 26 28  1  0  0  0
 16 18  1  0  0  0
 18 19  2  0  0  0
 18 20  1  0  0  0
 20 21  1  0  0  0
 21 22  1  0  0  0
  7  9  1  0  0  0
  9 10  2  0  0  0
  9 11  1  0  0  0
  6  1  1  0  0  0
 17 13  2  0  0  0
 11  4  1  0  0  0
 22 15  1  0  0  0
 34 35  1  0  0  0
 14 23  1  0  0  0
 28 29  1  0  0  0
 11 12  1  0  0  0
M  END
> <minimizedAffinity>
-3.69909

> <CNNscore>
0.4769460559

> <CNNaffinity>
4.8496246338

> <CNN_VS>
2.3130092621

> <CNNaffinity_variance>
0.2960346341

$$$$
[H]OC(=O)C([H])([H])C([H])([H])c1c2c(n([H])c1C([H])=C1C(=O)N([H])c3c([H])c([H])c(S(=O)(=O)N([H])C([H])([H])[H])c([H])c31)C([H])([H])C([H])([H])C([H])([H])C2=O


 35 38  0  0  0  0  0  0  0  0999 V2000
   33.3545  -22.7401   36.5542 C   0  0  0  0  0  0  0  0  0  0  0  0
   33.0382  -24.0746   36.6924 C   0  0  0  0  0  0  0  0  0  0  0  0
   33.8338  -24.9238   37.4222 C   0  0  0  0  0  0  0  0  0  0  0  0
   34.9985  -24.4745   38.0573 C   0  0  0  0  0  0  0  0  0  0  0  0
   35.3195  -23.1431   37.9227 C   0  0  0  0  0  0  0  0  0  0  0  0
   34.4890  -22.3100   37.1744 C   0  0  0  0  0  0  0  0  0  0  0  0
   36.5670  -22.8360   38.6530 C   0  0  0  0  0  0  0  0  0  0  0  0
   37.1326  -21.6603   38.7495 C   0  0  0  0  0  0  0  0  0  0  0  0
   36.9407  -24.1192   39.2265 C   0  0  0  0  0  0  0  0  0  0  0  0
   37.9438  -24.3657   39.9440 O   0  0  0  0  0  0  0  0  0  0  0  0
   35.9719  -25.1167   38.8540 N   0  0  0  0  0  0  0  0  0  0  0  0
   35.9676  -26.1215   39.1095 H   0  0  0  0  0  0  0  0  0  0  0  0
   38.3557  -21.3317   39.4545 C   0  0  0  0  0  0  0  0  0  0  0  0
   38.6770  -21.2634   40.7448 N   0  0  0  0  0  0  0  0  0  0  0  0
   39.9584  -20.8833   40.9117 C   0  0  0  0  0  0  0  0  0  0  0  0
   40.5166  -20.6902   39.6662 C   0  0  0  0  0  0  0  0  0  0  0  0
   39.5164  -20.9704   38.7619 C   0  0  0  0  0  0  0  0  0  0  0  0
   41.9055  -20.2729   39.5957 C   0  0  0  0  0  0  0  0  0  0  0  0
   42.5603  -20.6010   38.5764 O   0  0  0  0  0  0  0  0  0  0  0  0
   42.5604  -19.4830   40.6760 C   0  0  0  0  0  0  0  0  0  0  0  0
   41.5490  -19.3047   41.8168 C   0  0  0  0  0  0  0  0  0  0  0  0
   40.8492  -20.6423   42.0880 C   0  0  0  0  0  0  0  0  0  0  0  0
   38.0690  -21.4788   41.5403 H   0  0  0  0  0  0  0  0  0  0  0  0
   39.6853  -20.8938   37.3107 C   0  0  0  0  0  0  0  0  0  0  0  0
   39.6337  -19.4877   36.7568 C   0  0  0  0  0  0  0  0  0  0  0  0
   40.6716  -19.3941   35.7080 C   0  0  0  0  0  0  0  0  0  0  0  0
   40.4897  -18.7165   34.6790 O   0  0  0  0  0  0  0  0  0  0  0  0
   41.8643  -20.0695   35.8708 O   0  0  0  0  0  0  0  0  0  0  0  0
   41.9333  -21.0708   35.9960 H   0  0  0  0  0  0  0  0  0  0  0  0
   32.3621  -21.6373   35.6437 S   0  0  0  0  0  0  0  0  0  0  0  0
   31.8012  -22.4024   34.4778 O   0  0  0  0  0  0  0  0  0  0  0  0
   33.1630  -20.5033   35.1113 O   0  0  0  0  0  0  0  0  0  0  0  0
   29.9108  -20.6825   35.6991 C   0  0  0  0  0  0  0  0  0  0  0  0
   31.0373  -21.0250   36.5472 N   0  0  0  0  0  0  0  0  0  0  0  0
   31.2846  -20.2892   37.2121 H   0  0  0  0  0  0  0  0  0  0  0  0
 33 34  1  0  0  0
 34 30  1  0  0  0
 30 31  2  0  0  0
 30 32  2  0  0  0
 30  1  1  0  0  0
  1  2  2  0  0  0
  2  3  1  0  0  0
  3  4  2  0  0  0
  4  5  1  0  0  0
  5  6  2  0  0  0
  5  7  1  0  0  0
  7  8  2  0  0  0
  8 13  1  0  0  0
 13 14  1  0  0  0
 14 15  1  0  0  0
 15 16  2  0  0  0
 16 17  1  0  0  0
 17 24  1  0  0  0
 24 25  1  0  0  0
 25 26  1  0  0  0
 26 27  2  0  0  0
 26 28  1  0  0  0
 16 18  1  0  0  0
 18 19  2  0  0  0
 18 20  1  0  0  0
 20 21  1  0  0  0
 21 22  1  0  0  0
  7  9  1  0  0  0
  9 10  2  0  0  0
  9 11  1  0  0  0
  6  1  1  0  0  0
 17 13  2  0  0  0
 11  4  1  0  0  0
 22 15  1  0  0  0
 34 35  1  0  0  0
 14 23  1  0  0  0
 28 29  1  0  0  0
 11 12  1  0  0  0
M  END
> <minimizedAffinity>
-4.25328

> <CNNscore>
0.4468424618

> <CNNaffinity>
4.8976812363

> <CNN_VS>
2.1884920597

> <CNNaffinity_variance>
0.1933059692

$$$$
[H]OC(=O)C([H])([H])C([H])([H])c1c2c(n([H])c1C([H])=C1C(=O)N([H])c3c([H])c([H])c(S(=O)(=O)N([H])C([H])([H])[H])c([H])c31)C([H])([H])C([H])([H])C([H])([H])C2=O


 35 38  0  0  0  0  0  0  0  0999 V2000
   30.5470  -20.4929   35.8829 C   0  0  0  0  0  0  0  0  0  0  0  0
   30.3621  -19.5193   34.9248 C   0  0  0  0  0  0  0  0  0  0  0  0
   31.4266  -18.8397   34.3846 C   0  0  0  0  0  0  0  0  0  0  0  0
   32.7438  -19.1039   34.7806 C   0  0  0  0  0  0  0  0  0  0  0  0
   32.9346  -20.0749   35.7370 C   0  0  0  0  0  0  0  0  0  0  0  0
   31.8309  -20.7445   36.2637 C   0  0  0  0  0  0  0  0  0  0  0  0
   34.3735  -20.2306   36.0353 C   0  0  0  0  0  0  0  0  0  0  0  0
   34.8969  -21.0849   36.8766 C   0  0  0  0  0  0  0  0  0  0  0  0
   35.0020  -19.2553   35.1583 C   0  0  0  0  0  0  0  0  0  0  0  0
   36.2317  -19.0151   35.0495 O   0  0  0  0  0  0  0  0  0  0  0  0
   33.9928  -18.5699   34.3941 N   0  0  0  0  0  0  0  0  0  0  0  0
   34.1314  -17.8232   33.6884 H   0  0  0  0  0  0  0  0  0  0  0  0
   36.3014  -21.2563   37.1910 C   0  0  0  0  0  0  0  0  0  0  0  0
   37.3880  -21.4492   36.4462 N   0  0  0  0  0  0  0  0  0  0  0  0
   38.4899  -21.5781   37.2103 C   0  0  0  0  0  0  0  0  0  0  0  0
   38.1141  -21.4637   38.5316 C   0  0  0  0  0  0  0  0  0  0  0  0
   36.7516  -21.2633   38.5157 C   0  0  0  0  0  0  0  0  0  0  0  0
   39.1451  -21.5709   39.5484 C   0  0  0  0  0  0  0  0  0  0  0  0
   38.9580  -20.9664   40.6323 O   0  0  0  0  0  0  0  0  0  0  0  0
   40.3914  -22.3616   39.3451 C   0  0  0  0  0  0  0  0  0  0  0  0
   40.3784  -22.9127   37.9125 C   0  0  0  0  0  0  0  0  0  0  0  0
   39.9440  -21.8037   36.9462 C   0  0  0  0  0  0  0  0  0  0  0  0
   37.4321  -21.4850   35.4237 H   0  0  0  0  0  0  0  0  0  0  0  0
   35.9402  -21.0857   39.7200 C   0  0  0  0  0  0  0  0  0  0  0  0
   35.2003  -22.3307   40.1548 C   0  0  0  0  0  0  0  0  0  0  0  0
   36.1426  -23.1400   40.9567 C   0  0  0  0  0  0  0  0  0  0  0  0
   36.5342  -22.7550   42.0746 O   0  0  0  0  0  0  0  0  0  0  0  0
   36.5975  -24.3443   40.4588 O   0  0  0  0  0  0  0  0  0  0  0  0
   37.0960  -24.4411   39.5841 H   0  0  0  0  0  0  0  0  0  0  0  0
   29.2197  -21.3775   36.5799 S   0  0  0  0  0  0  0  0  0  0  0  0
   28.1950  -20.3694   37.0192 O   0  0  0  0  0  0  0  0  0  0  0  0
   29.6526  -22.1486   37.7752 O   0  0  0  0  0  0  0  0  0  0  0  0
   27.6578  -23.4464   36.1285 C   0  0  0  0  0  0  0  0  0  0  0  0
   28.4594  -22.4362   35.4631 N   0  0  0  0  0  0  0  0  0  0  0  0
   29.0851  -22.8176   34.7505 H   0  0  0  0  0  0  0  0  0  0  0  0
 33 34  1  0  0  0
 34 30  1  0  0  0
 30 31  2  0  0  0
 30 32  2  0  0  0
 30  1  1  0  0  0
  1  2  2  0  0  0
  2  3  1  0  0  0
  3  4  2  0  0  0
  4  5  1  0  0  0
  5  6  2  0  0  0
  5  7  1  0  0  0
  7  8  2  0  0  0
  8 13  1  0  0  0
 13 14  1  0  0  0
 14 15  1  0  0  0
 15 16  2  0  0  0
 16 17  1  0  0  0
 17 24  1  0  0  0
 24 25  1  0  0  0
 25 26  1  0  0  0
 26 27  2  0  0  0
 26 28  1  0  0  0
 16 18  1  0  0  0
 18 19  2  0  0  0
 18 20  1  0  0  0
 20 21  1  0  0  0
 21 22  1  0  0  0
  7  9  1  0  0  0
  9 10  2  0  0  0
  9 11  1  0  0  0
  6  1  1  0  0  0
 17 13  2  0  0  0
 11  4  1  0  0  0
 22 15  1  0  0  0
 34 35  1  0  0  0
 14 23  1  0  0  0
 28 29  1  0  0  0
 11 12  1  0  0  0
M  END
> <minimizedAffinity>
-4.87028

> <CNNscore>
0.4022965133

> <CNNaffinity>
4.9755411148

> <CNN_VS>
2.0016429424

> <CNNaffinity_variance>
0.1059848443

$$$$
[H]OC(=O)C([H])([H])C([H])([H])c1c2c(n([H])c1C([H])=C1C(=O)N([H])c3c([H])c([H])c(S(=O)(=O)N([H])C([H])([H])[H])c([H])c31)C([H])([H])C([H])([H])C([H])([H])C2=O


 35 38  0  0  0  0  0  0  0  0999 V2000
   35.8505  -15.9210   36.5850 C   0  0  0  0  0  0  0  0  0  0  0  0
   34.7943  -16.4688   35.8889 C   0  0  0  0  0  0  0  0  0  0  0  0
   34.8962  -17.7027   35.2941 C   0  0  0  0  0  0  0  0  0  0  0  0
   36.0732  -18.4584   35.3674 C   0  0  0  0  0  0  0  0  0  0  0  0
   37.1311  -17.9165   36.0610 C   0  0  0  0  0  0  0  0  0  0  0  0
   36.9925  -16.6614   36.6520 C   0  0  0  0  0  0  0  0  0  0  0  0
   38.2858  -18.8385   36.0453 C   0  0  0  0  0  0  0  0  0  0  0  0
   39.4377  -18.6392   36.6325 C   0  0  0  0  0  0  0  0  0  0  0  0
   37.7963  -19.9709   35.2749 C   0  0  0  0  0  0  0  0  0  0  0  0
   38.4249  -21.0220   34.9892 O   0  0  0  0  0  0  0  0  0  0  0  0
   36.4385  -19.7263   34.8640 N   0  0  0  0  0  0  0  0  0  0  0  0
   35.8248  -20.3472   34.3047 H   0  0  0  0  0  0  0  0  0  0  0  0
   40.5867  -19.5229   36.6303 C   0  0  0  0  0  0  0  0  0  0  0  0
   41.5150  -19.8130   35.7211 N   0  0  0  0  0  0  0  0  0  0  0  0
   42.3840  -20.7326   36.1835 C   0  0  0  0  0  0  0  0  0  0  0  0
   42.0126  -21.0693   37.4676 C   0  0  0  0  0  0  0  0  0  0  0  0
   40.8940  -20.3143   37.7423 C   0  0  0  0  0  0  0  0  0  0  0  0
   42.8114  -22.0538   38.1754 C   0  0  0  0  0  0  0  0  0  0  0  0
   42.8463  -21.9828   39.4280 O   0  0  0  0  0  0  0  0  0  0  0  0
   43.5738  -23.1228   37.4712 C   0  0  0  0  0  0  0  0  0  0  0  0
   43.4090  -22.9098   35.9600 C   0  0  0  0  0  0  0  0  0  0  0  0
   43.5915  -21.4221   35.6345 C   0  0  0  0  0  0  0  0  0  0  0  0
   41.6071  -19.4042   34.7866 H   0  0  0  0  0  0  0  0  0  0  0  0
   40.1723  -20.3604   39.0141 C   0  0  0  0  0  0  0  0  0  0  0  0
   39.7161  -21.7452   39.4149 C   0  0  0  0  0  0  0  0  0  0  0  0
   38.2942  -21.6393   39.8063 C   0  0  0  0  0  0  0  0  0  0  0  0
   37.3847  -22.0045   39.0378 O   0  0  0  0  0  0  0  0  0  0  0  0
   37.9673  -21.1266   41.0454 O   0  0  0  0  0  0  0  0  0  0  0  0
   38.2308  -20.2026   41.3612 H   0  0  0  0  0  0  0  0  0  0  0  0
   35.7495  -14.3641   37.3569 S   0  0  0  0  0  0  0  0  0  0  0  0
   34.4568  -14.3303   38.1230 O   0  0  0  0  0  0  0  0  0  0  0  0
   35.7233  -13.2652   36.3556 O   0  0  0  0  0  0  0  0  0  0  0  0
   38.2154  -13.5754   37.8268 C   0  0  0  0  0  0  0  0  0  0  0  0
   37.0218  -14.0862   38.4750 N   0  0  0  0  0  0  0  0  0  0  0  0
   37.2053  -14.8676   39.1078 H   0  0  0  0  0  0  0  0  0  0  0  0
 33 34  1  0  0  0
 34 30  1  0  0  0
 30 31  2  0  0  0
 30 32  2  0  0  0
 30  1  1  0  0  0
  1  2  2  0  0  0
  2  3  1  0  0  0
  3  4  2  0  0  0
  4  5  1  0  0  0
  5  6  2  0  0  0
  5  7  1  0  0  0
  7  8  2  0  0  0
  8 13  1  0  0  0
 13 14  1  0  0  0
 14 15  1  0  0  0
 15 16  2  0  0  0
 16 17  1  0  0  0
 17 24  1  0  0  0
 24 25  1  0  0  0
 25 26  1  0  0  0
 26 27  2  0  0  0
 26 28  1  0  0  0
 16 18  1  0  0  0
 18 19  2  0  0  0
 18 20  1  0  0  0
 20 21  1  0  0  0
 21 22  1  0  0  0
  7  9  1  0  0  0
  9 10  2  0  0  0
  9 11  1  0  0  0
  6  1  1  0  0  0
 17 13  2  0  0  0
 11  4  1  0  0  0
 22 15  1  0  0  0
 34 35  1  0  0  0
 14 23  1  0  0  0
 28 29  1  0  0  0
 11 12  1  0  0  0
M  END
> <minimizedAffinity>
-5.43982

> <CNNscore>
0.3961393237

> <CNNaffinity>
5.2903542519

> <CNN_VS>
2.0957174301

> <CNNaffinity_variance>
0.0702573434

$$$$
[H]OC(=O)C([H])([H])C([H])([H])c1c2c(n([H])c1C([H])=C1C(=O)N([H])c3c([H])c([H])c(S(=O)(=O)N([H])C([H])([H])[H])c([H])c31)C([H])([H])C([H])([H])C([H])([H])C2=O


 35 38  0  0  0  0  0  0  0  0999 V2000
   30.2021  -21.2803   36.0056 C   0  0  0  0  0  0  0  0  0  0  0  0
   29.6004  -20.2153   35.3702 C   0  0  0  0  0  0  0  0  0  0  0  0
   30.3144  -19.0920   35.0305 C   0  0  0  0  0  0  0  0  0  0  0  0
   31.6814  -18.9776   35.3129 C   0  0  0  0  0  0  0  0  0  0  0  0
   32.2876  -20.0377   35.9474 C   0  0  0  0  0  0  0  0  0  0  0  0
   31.5321  -21.1620   36.2775 C   0  0  0  0  0  0  0  0  0  0  0  0
   33.7221  -19.7577   36.1653 C   0  0  0  0  0  0  0  0  0  0  0  0
   34.5889  -20.5671   36.7176 C   0  0  0  0  0  0  0  0  0  0  0  0
   33.8920  -18.4306   35.5950 C   0  0  0  0  0  0  0  0  0  0  0  0
   34.9541  -17.7594   35.5399 O   0  0  0  0  0  0  0  0  0  0  0  0
   32.6337  -17.9620   35.0759 N   0  0  0  0  0  0  0  0  0  0  0  0
   32.4385  -17.0556   34.6119 H   0  0  0  0  0  0  0  0  0  0  0  0
   35.9982  -20.3174   36.9470 C   0  0  0  0  0  0  0  0  0  0  0  0
   36.9170  -19.6028   36.3008 N   0  0  0  0  0  0  0  0  0  0  0  0
   38.1213  -19.6986   36.8965 C   0  0  0  0  0  0  0  0  0  0  0  0
   37.9941  -20.5196   37.9965 C   0  0  0  0  0  0  0  0  0  0  0  0
   36.6714  -20.9025   38.0249 C   0  0  0  0  0  0  0  0  0  0  0  0
   39.1750  -20.7721   38.8026 C   0  0  0  0  0  0  0  0  0  0  0  0
   39.0046  -21.0302   40.0190 O   0  0  0  0  0  0  0  0  0  0  0  0
   40.5532  -20.7345   38.2379 C   0  0  0  0  0  0  0  0  0  0  0  0
   40.4538  -20.3174   36.7640 C   0  0  0  0  0  0  0  0  0  0  0  0
   39.4822  -19.1376   36.6351 C   0  0  0  0  0  0  0  0  0  0  0  0
   36.7708  -19.0266   35.4668 H   0  0  0  0  0  0  0  0  0  0  0  0
   36.0999  -21.7825   39.0443 C   0  0  0  0  0  0  0  0  0  0  0  0
   35.5947  -21.0584   40.2719 C   0  0  0  0  0  0  0  0  0  0  0  0
   34.2411  -21.5795   40.5590 C   0  0  0  0  0  0  0  0  0  0  0  0
   33.9949  -22.1869   41.6180 O   0  0  0  0  0  0  0  0  0  0  0  0
   33.2310  -21.3901   39.6375 O   0  0  0  0  0  0  0  0  0  0  0  0
   33.2691  -21.7209   38.6825 H   0  0  0  0  0  0  0  0  0  0  0  0
   29.3267  -22.7205   36.4408 S   0  0  0  0  0  0  0  0  0  0  0  0
   30.2054  -23.8933   36.1066 O   0  0  0  0  0  0  0  0  0  0  0  0
   28.0692  -22.8459   35.6573 O   0  0  0  0  0  0  0  0  0  0  0  0
   29.7733  -23.7980   38.7994 C   0  0  0  0  0  0  0  0  0  0  0  0
   28.9651  -22.8048   38.1166 N   0  0  0  0  0  0  0  0  0  0  0  0
   27.9680  -22.8752   38.3298 H   0  0  0  0  0  0  0  0  0  0  0  0
 33 34  1  0  0  0
 34 30  1  0  0  0
 30 31  2  0  0  0
 30 32  2  0  0  0
 30  1  1  0  0  0
  1  2  2  0  0  0
  2  3  1  0  0  0
  3  4  2  0  0  0
  4  5  1  0  0  0
  5  6  2  0  0  0
  5  7  1  0  0  0
  7  8  2  0  0  0
  8 13  1  0  0  0
 13 14  1  0  0  0
 14 15  1  0  0  0
 15 16  2  0  0  0
 16 17  1  0  0  0
 17 24  1  0  0  0
 24 25  1  0  0  0
 25 26  1  0  0  0
 26 27  2  0  0  0
 26 28  1  0  0  0
 16 18  1  0  0  0
 18 19  2  0  0  0
 18 20  1  0  0  0
 20 21  1  0  0  0
 21 22  1  0  0  0
  7  9  1  0  0  0
  9 10  2  0  0  0
  9 11  1  0  0  0
  6  1  1  0  0  0
 17 13  2  0  0  0
 11  4  1  0  0  0
 22 15  1  0  0  0
 34 35  1  0  0  0
 14 23  1  0  0  0
 28 29  1  0  0  0
 11 12  1  0  0  0
M  END
> <minimizedAffinity>
-5.58837

> <CNNscore>
0.3696724772

> <CNNaffinity>
4.9510083199

> <CNN_VS>
1.8302514553

> <CNNaffinity_variance>
0.3304760456

$$$$
[H]OC(=O)C([H])([H])C([H])([H])c1c2c(n([H])c1C([H])=C1C(=O)N([H])c3c([H])c([H])c(S(=O)(=O)N([H])C([H])([H])[H])c([H])c31)C([H])([H])C([H])([H])C([H])([H])C2=O


 35 38  0  0  0  0  0  0  0  0999 V2000
   35.9761  -16.1858   36.3857 C   0  0  0  0  0  0  0  0  0  0  0  0
   34.8369  -16.9058   36.0962 C   0  0  0  0  0  0  0  0  0  0  0  0
   34.8876  -18.2599   35.8710 C   0  0  0  0  0  0  0  0  0  0  0  0
   36.0944  -18.9687   35.9252 C   0  0  0  0  0  0  0  0  0  0  0  0
   37.2352  -18.2551   36.2138 C   0  0  0  0  0  0  0  0  0  0  0  0
   37.1466  -16.8817   36.4366 C   0  0  0  0  0  0  0  0  0  0  0  0
   38.4118  -19.1488   36.2365 C   0  0  0  0  0  0  0  0  0  0  0  0
   39.6422  -18.7944   36.5048 C   0  0  0  0  0  0  0  0  0  0  0  0
   37.8442  -20.4531   35.9334 C   0  0  0  0  0  0  0  0  0  0  0  0
   38.4605  -21.5456   35.8427 O   0  0  0  0  0  0  0  0  0  0  0  0
   36.4224  -20.3303   35.7438 N   0  0  0  0  0  0  0  0  0  0  0  0
   35.7467  -21.0832   35.5169 H   0  0  0  0  0  0  0  0  0  0  0  0
   40.8138  -19.6475   36.5303 C   0  0  0  0  0  0  0  0  0  0  0  0
   41.6114  -20.1337   35.5816 N   0  0  0  0  0  0  0  0  0  0  0  0
   42.5751  -20.9163   36.1045 C   0  0  0  0  0  0  0  0  0  0  0  0
   42.4081  -20.9500   37.4723 C   0  0  0  0  0  0  0  0  0  0  0  0
   41.3114  -20.1591   37.7337 C   0  0  0  0  0  0  0  0  0  0  0  0
   43.3407  -21.7396   38.2566 C   0  0  0  0  0  0  0  0  0  0  0  0
   43.5541  -21.3813   39.4404 O   0  0  0  0  0  0  0  0  0  0  0  0
   44.0358  -22.9373   37.7070 C   0  0  0  0  0  0  0  0  0  0  0  0
   43.6448  -23.0798   36.2295 C   0  0  0  0  0  0  0  0  0  0  0  0
   43.7173  -21.7062   35.5509 C   0  0  0  0  0  0  0  0  0  0  0  0
   41.5500  -19.9509   34.5758 H   0  0  0  0  0  0  0  0  0  0  0  0
   40.7843  -19.9151   39.0765 C   0  0  0  0  0  0  0  0  0  0  0  0
   39.8672  -21.0037   39.5867 C   0  0  0  0  0  0  0  0  0  0  0  0
   40.1422  -21.1639   41.0305 C   0  0  0  0  0  0  0  0  0  0  0  0
   39.2338  -21.0581   41.8760 O   0  0  0  0  0  0  0  0  0  0  0  0
   41.4286  -21.4357   41.4507 O   0  0  0  0  0  0  0  0  0  0  0  0
   42.2226  -20.8392   41.2596 H   0  0  0  0  0  0  0  0  0  0  0  0
   35.9432  -14.4713   36.6846 S   0  0  0  0  0  0  0  0  0  0  0  0
   35.4955  -14.2760   38.1061 O   0  0  0  0  0  0  0  0  0  0  0  0
   34.9693  -13.7862   35.7941 O   0  0  0  0  0  0  0  0  0  0  0  0
   38.1246  -13.5167   37.8044 C   0  0  0  0  0  0  0  0  0  0  0  0
   37.4837  -13.7323   36.5204 N   0  0  0  0  0  0  0  0  0  0  0  0
   37.4934  -12.9073   35.9171 H   0  0  0  0  0  0  0  0  0  0  0  0
 33 34  1  0  0  0
 34 30  1  0  0  0
 30 31  2  0  0  0
 30 32  2  0  0  0
 30  1  1  0  0  0
  1  2  2  0  0  0
  2  3  1  0  0  0
  3  4  2  0  0  0
  4  5  1  0  0  0
  5  6  2  0  0  0
  5  7  1  0  0  0
  7  8  2  0  0  0
  8 13  1  0  0  0
 13 14  1  0  0  0
 14 15  1  0  0  0
 15 16  2  0  0  0
 16 17  1  0  0  0
 17 24  1  0  0  0
 24 25  1  0  0  0
 25 26  1  0  0  0
 26 27  2  0  0  0
 26 28  1  0  0  0
 16 18  1  0  0  0
 18 19  2  0  0  0
 18 20  1  0  0  0
 20 21  1  0  0  0
 21 22  1  0  0  0
  7  9  1  0  0  0
  9 10  2  0  0  0
  9 11  1  0  0  0
  6  1  1  0  0  0
 17 13  2  0  0  0
 11  4  1  0  0  0
 22 15  1  0  0  0
 34 35  1  0  0  0
 14 23  1  0  0  0
 28 29  1  0  0  0
 11 12  1  0  0  0
M  END
> <minimizedAffinity>
-5.66231

> <CNNscore>
0.3602797687

> <CNNaffinity>
5.4383306503

> <CNN_VS>
1.9593205452

> <CNNaffinity_variance>
0.0497358106

$$$$
[H]OC(=O)C([H])([H])C([H])([H])c1c2c(n([H])c1C([H])=C1C(=O)N([H])c3c([H])c([H])c(S(=O)(=O)N([H])C([H])([H])[H])c([H])c31)C([H])([H])C([H])([H])C([H])([H])C2=O


 35 38  0  0  0  0  0  0  0  0999 V2000
   41.2570  -20.3394   39.1304 C   0  0  0  0  0  0  0  0  0  0  0  0
   42.2424  -19.6840   38.4238 C   0  0  0  0  0  0  0  0  0  0  0  0
   41.9719  -19.0713   37.2246 C   0  0  0  0  0  0  0  0  0  0  0  0
   40.6873  -19.0841   36.6667 C   0  0  0  0  0  0  0  0  0  0  0  0
   39.6993  -19.7370   37.3677 C   0  0  0  0  0  0  0  0  0  0  0  0
   40.0097  -20.3481   38.5818 C   0  0  0  0  0  0  0  0  0  0  0  0
   38.4121  -19.6523   36.6468 C   0  0  0  0  0  0  0  0  0  0  0  0
   37.2695  -20.1441   37.0518 C   0  0  0  0  0  0  0  0  0  0  0  0
   38.7474  -18.8854   35.4573 C   0  0  0  0  0  0  0  0  0  0  0  0
   37.9695  -18.5486   34.5282 O   0  0  0  0  0  0  0  0  0  0  0  0
   40.1454  -18.5429   35.4801 N   0  0  0  0  0  0  0  0  0  0  0  0
   40.6764  -18.0028   34.7722 H   0  0  0  0  0  0  0  0  0  0  0  0
   35.9949  -20.0793   36.3645 C   0  0  0  0  0  0  0  0  0  0  0  0
   35.6500  -19.8665   35.0963 N   0  0  0  0  0  0  0  0  0  0  0  0
   34.3116  -19.8750   34.9439 C   0  0  0  0  0  0  0  0  0  0  0  0
   33.7389  -20.1065   36.1762 C   0  0  0  0  0  0  0  0  0  0  0  0
   34.7894  -20.2334   37.0577 C   0  0  0  0  0  0  0  0  0  0  0  0
   32.2902  -20.1592   36.2588 C   0  0  0  0  0  0  0  0  0  0  0  0
   31.7847  -20.8626   37.1671 O   0  0  0  0  0  0  0  0  0  0  0  0
   31.4067  -19.4173   35.3161 C   0  0  0  0  0  0  0  0  0  0  0  0
   32.2960  -18.7202   34.2771 C   0  0  0  0  0  0  0  0  0  0  0  0
   33.3734  -19.6988   33.7933 C   0  0  0  0  0  0  0  0  0  0  0  0
   36.2834  -19.7269   34.3037 H   0  0  0  0  0  0  0  0  0  0  0  0
   34.6258  -20.4930   38.4881 C   0  0  0  0  0  0  0  0  0  0  0  0
   34.5912  -21.9610   38.8490 C   0  0  0  0  0  0  0  0  0  0  0  0
   33.8932  -22.0742   40.1474 C   0  0  0  0  0  0  0  0  0  0  0  0
   33.7147  -23.1812   40.6895 O   0  0  0  0  0  0  0  0  0  0  0  0
   33.4304  -20.9333   40.7714 O   0  0  0  0  0  0  0  0  0  0  0  0
   32.7703  -20.2903   40.3546 H   0  0  0  0  0  0  0  0  0  0  0  0
   41.5663  -21.1174   40.6565 S   0  0  0  0  0  0  0  0  0  0  0  0
   40.9636  -20.2519   41.7274 O   0  0  0  0  0  0  0  0  0  0  0  0
   43.0254  -21.2308   40.9193 O   0  0  0  0  0  0  0  0  0  0  0  0
   39.5175  -22.6093   41.3640 C   0  0  0  0  0  0  0  0  0  0  0  0
   40.8431  -22.6695   40.7767 N   0  0  0  0  0  0  0  0  0  0  0  0
   41.4425  -23.3825   41.1974 H   0  0  0  0  0  0  0  0  0  0  0  0
 33 34  1  0  0  0
 34 30  1  0  0  0
 30 31  2  0  0  0
 30 32  2  0  0  0
 30  1  1  0  0  0
  1  2  2  0  0  0
  2  3  1  0  0  0
  3  4  2  0  0  0
  4  5  1  0  0  0
  5  6  2  0  0  0
  5  7  1  0  0  0
  7  8  2  0  0  0
  8 13  1  0  0  0
 13 14  1  0  0  0
 14 15  1  0  0  0
 15 16  2  0  0  0
 16 17  1  0  0  0
 17 24  1  0  0  0
 24 25  1  0  0  0
 25 26  1  0  0  0
 26 27  2  0  0  0
 26 28  1  0  0  0
 16 18  1  0  0  0
 18 19  2  0  0  0
 18 20  1  0  0  0
 20 21  1  0  0  0
 21 22  1  0  0  0
  7  9  1  0  0  0
  9 10  2  0  0  0
  9 11  1  0  0  0
  6  1  1  0  0  0
 17 13  2  0  0  0
 11  4  1  0  0  0
 22 15  1  0  0  0
 34 35  1  0  0  0
 14 23  1  0  0  0
 28 29  1  0  0  0
 11 12  1  0  0  0
M  END
> <minimizedAffinity>
-5.34397

> <CNNscore>
0.3577642739

> <CNNaffinity>
5.1600503922

> <CNN_VS>
1.8460817337

> <CNNaffinity_variance>
0.1040659547

$$$$
[H]OC(=O)C([H])([H])C([H])([H])c1c2c(n([H])c1C([H])=C1C(=O)N([H])c3c([H])c([H])c(S(=O)(=O)N([H])C([H])([H])[H])c([H])c31)C([H])([H])C([H])([H])C([H])([H])C2=O


 35 38  0  0  0  0  0  0  0  0999 V2000
   35.1546  -18.4438   35.8386 C   0  0  0  0  0  0  0  0  0  0  0  0
   34.5828  -17.3798   35.1744 C   0  0  0  0  0  0  0  0  0  0  0  0
   33.2583  -17.3952   34.8108 C   0  0  0  0  0  0  0  0  0  0  0  0
   32.4308  -18.4883   35.0973 C   0  0  0  0  0  0  0  0  0  0  0  0
   32.9961  -19.5536   35.7603 C   0  0  0  0  0  0  0  0  0  0  0  0
   34.3438  -19.5038   36.1138 C   0  0  0  0  0  0  0  0  0  0  0  0
   31.9915  -20.6134   35.9866 C   0  0  0  0  0  0  0  0  0  0  0  0
   32.1941  -21.7450   36.6110 C   0  0  0  0  0  0  0  0  0  0  0  0
   30.7854  -20.0605   35.3909 C   0  0  0  0  0  0  0  0  0  0  0  0
   29.6506  -20.6000   35.3368 O   0  0  0  0  0  0  0  0  0  0  0  0
   31.0669  -18.7572   34.8481 N   0  0  0  0  0  0  0  0  0  0  0  0
   30.4105  -18.1185   34.3624 H   0  0  0  0  0  0  0  0  0  0  0  0
   31.2300  -22.8021   36.8436 C   0  0  0  0  0  0  0  0  0  0  0  0
   30.2641  -23.3381   36.1003 N   0  0  0  0  0  0  0  0  0  0  0  0
   29.6034  -24.2997   36.7737 C   0  0  0  0  0  0  0  0  0  0  0  0
   30.1613  -24.4074   38.0296 C   0  0  0  0  0  0  0  0  0  0  0  0
   31.1734  -23.4741   38.0694 C   0  0  0  0  0  0  0  0  0  0  0  0
   29.6065  -25.3902   38.9432 C   0  0  0  0  0  0  0  0  0  0  0  0
   30.3718  -25.8726   39.8132 O   0  0  0  0  0  0  0  0  0  0  0  0
   28.1851  -25.8318   38.8779 C   0  0  0  0  0  0  0  0  0  0  0  0
   27.5253  -25.1402   37.6769 C   0  0  0  0  0  0  0  0  0  0  0  0
   28.4648  -25.2187   36.4671 C   0  0  0  0  0  0  0  0  0  0  0  0
   30.0285  -23.0961   35.1335 H   0  0  0  0  0  0  0  0  0  0  0  0
   32.0344  -23.2552   39.2317 C   0  0  0  0  0  0  0  0  0  0  0  0
   33.3205  -24.0499   39.2055 C   0  0  0  0  0  0  0  0  0  0  0  0
   33.6053  -24.4640   40.5959 C   0  0  0  0  0  0  0  0  0  0  0  0
   34.7609  -24.4199   41.0584 O   0  0  0  0  0  0  0  0  0  0  0  0
   32.5728  -24.9078   41.3973 O   0  0  0  0  0  0  0  0  0  0  0  0
   31.9836  -25.6984   41.1723 H   0  0  0  0  0  0  0  0  0  0  0  0
   36.8272  -18.4505   36.3204 S   0  0  0  0  0  0  0  0  0  0  0  0
   37.6165  -19.0294   35.1797 O   0  0  0  0  0  0  0  0  0  0  0  0
   37.0420  -19.3094   37.5150 O   0  0  0  0  0  0  0  0  0  0  0  0
   36.6269  -16.1532   37.5877 C   0  0  0  0  0  0  0  0  0  0  0  0
   37.4420  -16.8782   36.6307 N   0  0  0  0  0  0  0  0  0  0  0  0
   37.6614  -16.3380   35.7912 H   0  0  0  0  0  0  0  0  0  0  0  0
 33 34  1  0  0  0
 34 30  1  0  0  0
 30 31  2  0  0  0
 30 32  2  0  0  0
 30  1  1  0  0  0
  1  2  2  0  0  0
  2  3  1  0  0  0
  3  4  2  0  0  0
  4  5  1  0  0  0
  5  6  2  0  0  0
  5  7  1  0  0  0
  7  8  2  0  0  0
  8 13  1  0  0  0
 13 14  1  0  0  0
 14 15  1  0  0  0
 15 16  2  0  0  0
 16 17  1  0  0  0
 17 24  1  0  0  0
 24 25  1  0  0  0
 25 26  1  0  0  0
 26 27  2  0  0  0
 26 28  1  0  0  0
 16 18  1  0  0  0
 18 19  2  0  0  0
 18 20  1  0  0  0
 20 21  1  0  0  0
 21 22  1  0  0  0
  7  9  1  0  0  0
  9 10  2  0  0  0
  9 11  1  0  0  0
  6  1  1  0  0  0
 17 13  2  0  0  0
 11  4  1  0  0  0
 22 15  1  0  0  0
 34 35  1  0  0  0
 14 23  1  0  0  0
 28 29  1  0  0  0
 11 12  1  0  0  0
M  END
> <minimizedAffinity>
-4.67228

> <CNNscore>
0.3376903534

> <CNNaffinity>
4.7605042458

> <CNN_VS>
1.6075763702

> <CNNaffinity_variance>
0.2233854532

$$$$
[H]c1nc(OC([H])([H])[H])c(N([H])S(=O)(=O)c2c([H])c([H])c(F)c([H])c2F)c([H])c1-c1nc([H])c2nc(N([H])[H])c(-c3c([H])c([H])c([H])c([H])c3[H])c([H])c2c1[H]


 40 44  0  0  0  0  0  0  0  0999 V2000
   32.9584  -23.6979   37.6155 C   0  0  0  0  0  0  0  0  0  0  0  0
   33.1056  -24.1713   38.8611 N   0  0  0  0  0  0  0  0  0  0  0  0
   34.0621  -23.7093   39.7262 C   0  0  0  0  0  0  0  0  0  0  0  0
   34.9326  -22.7184   39.3477 C   0  0  0  0  0  0  0  0  0  0  0  0
   34.7868  -22.2243   38.0621 C   0  0  0  0  0  0  0  0  0  0  0  0
   33.8093  -22.7032   37.1923 C   0  0  0  0  0  0  0  0  0  0  0  0
   35.9771  -22.1823   40.2274 C   0  0  0  0  0  0  0  0  0  0  0  0
   37.2198  -21.8985   39.7702 C   0  0  0  0  0  0  0  0  0  0  0  0
   38.2100  -21.3865   40.6192 C   0  0  0  0  0  0  0  0  0  0  0  0
   39.4688  -21.1051   40.1305 C   0  0  0  0  0  0  0  0  0  0  0  0
   40.4184  -20.5963   41.0208 C   0  0  0  0  0  0  0  0  0  0  0  0
   40.0764  -20.3910   42.3493 C   0  0  0  0  0  0  0  0  0  0  0  0
   41.0772  -19.8649   43.2066 N   0  0  0  0  0  0  0  0  0  0  0  0
   38.8309  -20.6771   42.8014 N   0  0  0  0  0  0  0  0  0  0  0  0
   37.9153  -21.1666   41.9483 C   0  0  0  0  0  0  0  0  0  0  0  0
   36.6283  -21.4689   42.3869 C   0  0  0  0  0  0  0  0  0  0  0  0
   35.7127  -21.9559   41.5434 N   0  0  0  0  0  0  0  0  0  0  0  0
   41.6469  -19.0699   42.8586 H   0  0  0  0  0  0  0  0  0  0  0  0
   41.2421  -20.2495   44.1433 H   0  0  0  0  0  0  0  0  0  0  0  0
   41.7255  -20.3150   40.5048 C   0  0  0  0  0  0  0  0  0  0  0  0
   42.0676  -19.0474   40.0970 C   0  0  0  0  0  0  0  0  0  0  0  0
   43.3039  -18.7488   39.5928 C   0  0  0  0  0  0  0  0  0  0  0  0
   44.2498  -19.7374   39.4823 C   0  0  0  0  0  0  0  0  0  0  0  0
   43.9469  -21.0210   39.8797 C   0  0  0  0  0  0  0  0  0  0  0  0
   42.6827  -21.2934   40.3877 C   0  0  0  0  0  0  0  0  0  0  0  0
   32.0508  -25.4625   36.1650 C   0  0  0  0  0  0  0  0  0  0  0  0
   31.9552  -24.2156   36.7758 O   0  0  0  0  0  0  0  0  0  0  0  0
   33.6628  -22.2028   35.8758 N   0  0  0  0  0  0  0  0  0  0  0  0
   34.1451  -22.7450   35.1031 H   0  0  0  0  0  0  0  0  0  0  0  0
   32.7583  -20.7823   35.4804 S   0  0  0  0  0  0  0  0  0  0  0  0
   32.1417  -20.9463   34.1092 O   0  0  0  0  0  0  0  0  0  0  0  0
   31.6111  -20.6612   36.4395 O   0  0  0  0  0  0  0  0  0  0  0  0
   33.7069  -19.3382   35.5449 C   0  0  0  0  0  0  0  0  0  0  0  0
   35.0297  -19.3686   35.9187 C   0  0  0  0  0  0  0  0  0  0  0  0
   35.7522  -18.1919   35.9509 C   0  0  0  0  0  0  0  0  0  0  0  0
   35.1674  -16.9938   35.6148 C   0  0  0  0  0  0  0  0  0  0  0  0
   35.8677  -15.8179   35.6409 F   0  0  0  0  0  0  0  0  0  0  0  0
   33.8332  -16.9412   35.2346 C   0  0  0  0  0  0  0  0  0  0  0  0
   33.1392  -18.1331   35.2125 C   0  0  0  0  0  0  0  0  0  0  0  0
   31.8357  -18.1212   34.8468 F   0  0  0  0  0  0  0  0  0  0  0  0
 26 27  1  0  0  0
 27  1  1  0  0  0
  1  2  2  0  0  0
  2  3  1  0  0  0
  3  4  2  0  0  0
  4  7  1  0  0  0
  7  8  2  0  0  0
  8  9  1  0  0  0
  9 10  2  0  0  0
 10 11  1  0  0  0
 11 20  1  0  0  0
 20 21  2  0  0  0
 21 22  1  0  0  0
 22 23  2  0  0  0
 23 24  1  0  0  0
 24 25  2  0  0  0
 11 12  2  0  0  0
 12 13  1  0  0  0
 12 14  1  0  0  0
 14 15  2  0  0  0
 15 16  1  0  0  0
 16 17  2  0  0  0
  4  5  1  0  0  0
  5  6  2  0  0  0
  6 28  1  0  0  0
 28 30  1  0  0  0
 30 31  2  0  0  0
 30 32  2  0  0  0
 30 33  1  0  0  0
 33 34  2  0  0  0
 34 35  1  0  0  0
 35 36  2  0  0  0
 36 37  1  0  0  0
 36 38  1  0  0  0
 38 39  2  0  0  0
 39 40  1  0  0  0
  6  1  1  0  0  0
 39 33  1  0  0  0
 17  7  1  0  0  0
 15  9  1  0  0  0
 25 20  1  0  0  0
 13 18  1  0  0  0
 13 19  1  0  0  0
 28 29  1  0  0  0
M  END
> <minimizedAffinity>
-5.93752

> <CNNscore>
0.2582463324

> <CNNaffinity>
5.7208037376

> <CNN_VS>
1.4773765802

> <CNNaffinity_variance>
0.1539837718

$$$$
[H]c1nc(OC([H])([H])[H])c(N([H])S(=O)(=O)c2c([H])c([H])c(F)c([H])c2F)c([H])c1-c1nc([H])c2nc(N([H])[H])c(-c3c([H])c([H])c([H])c([H])c3[H])c([H])c2c1[H]


 40 44  0  0  0  0  0  0  0  0999 V2000
   40.6102  -20.0029   37.6337 C   0  0  0  0  0  0  0  0  0  0  0  0
   40.3422  -19.0319   36.7490 N   0  0  0  0  0  0  0  0  0  0  0  0
   39.0699  -18.7157   36.3515 C   0  0  0  0  0  0  0  0  0  0  0  0
   37.9878  -19.3945   36.8525 C   0  0  0  0  0  0  0  0  0  0  0  0
   38.2566  -20.3992   37.7670 C   0  0  0  0  0  0  0  0  0  0  0  0
   39.5558  -20.7104   38.1629 C   0  0  0  0  0  0  0  0  0  0  0  0
   36.6028  -19.1031   36.4663 C   0  0  0  0  0  0  0  0  0  0  0  0
   35.6417  -20.0571   36.4798 C   0  0  0  0  0  0  0  0  0  0  0  0
   34.3217  -19.7678   36.1090 C   0  0  0  0  0  0  0  0  0  0  0  0
   33.3598  -20.7562   36.1307 C   0  0  0  0  0  0  0  0  0  0  0  0
   32.0594  -20.4130   35.7512 C   0  0  0  0  0  0  0  0  0  0  0  0
   31.7745  -19.1103   35.3696 C   0  0  0  0  0  0  0  0  0  0  0  0
   30.4358  -18.8161   35.0022 N   0  0  0  0  0  0  0  0  0  0  0  0
   32.7406  -18.1595   35.3579 N   0  0  0  0  0  0  0  0  0  0  0  0
   33.9923  -18.4858   35.7219 C   0  0  0  0  0  0  0  0  0  0  0  0
   35.0037  -17.5281   35.7189 C   0  0  0  0  0  0  0  0  0  0  0  0
   36.2508  -17.8462   36.0802 N   0  0  0  0  0  0  0  0  0  0  0  0
   29.6742  -19.1859   35.6029 H   0  0  0  0  0  0  0  0  0  0  0  0
   30.2149  -18.2566   34.1712 H   0  0  0  0  0  0  0  0  0  0  0  0
   31.0694  -21.4492   35.7692 C   0  0  0  0  0  0  0  0  0  0  0  0
   31.2202  -22.5851   35.0095 C   0  0  0  0  0  0  0  0  0  0  0  0
   30.2897  -23.5880   34.9987 C   0  0  0  0  0  0  0  0  0  0  0  0
   29.1583  -23.4738   35.7676 C   0  0  0  0  0  0  0  0  0  0  0  0
   28.9692  -22.3512   36.5431 C   0  0  0  0  0  0  0  0  0  0  0  0
   29.9320  -21.3495   36.5330 C   0  0  0  0  0  0  0  0  0  0  0  0
   42.9730  -19.3588   37.8431 C   0  0  0  0  0  0  0  0  0  0  0  0
   41.9402  -20.2784   38.0006 O   0  0  0  0  0  0  0  0  0  0  0  0
   39.8324  -21.7412   39.0937 N   0  0  0  0  0  0  0  0  0  0  0  0
   40.3264  -21.4567   39.9874 H   0  0  0  0  0  0  0  0  0  0  0  0
   39.4145  -23.4012   38.8450 S   0  0  0  0  0  0  0  0  0  0  0  0
   40.4794  -24.2833   39.4576 O   0  0  0  0  0  0  0  0  0  0  0  0
   38.1495  -23.6954   39.5959 O   0  0  0  0  0  0  0  0  0  0  0  0
   39.1901  -23.7983   37.1773 C   0  0  0  0  0  0  0  0  0  0  0  0
   37.9877  -24.2762   36.7123 C   0  0  0  0  0  0  0  0  0  0  0  0
   37.8501  -24.5754   35.3709 C   0  0  0  0  0  0  0  0  0  0  0  0
   38.8973  -24.4019   34.4970 C   0  0  0  0  0  0  0  0  0  0  0  0
   38.7794  -24.6930   33.1646 F   0  0  0  0  0  0  0  0  0  0  0  0
   40.1197  -23.9206   34.9459 C   0  0  0  0  0  0  0  0  0  0  0  0
   40.2248  -23.6313   36.2905 C   0  0  0  0  0  0  0  0  0  0  0  0
   41.4020  -23.1597   36.7652 F   0  0  0  0  0  0  0  0  0  0  0  0
 26 27  1  0  0  0
 27  1  1  0  0  0
  1  2  2  0  0  0
  2  3  1  0  0  0
  3  4  2  0  0  0
  4  7  1  0  0  0
  7  8  2  0  0  0
  8  9  1  0  0  0
  9 10  2  0  0  0
 10 11  1  0  0  0
 11 20  1  0  0  0
 20 21  2  0  0  0
 21 22  1  0  0  0
 22 23  2  0  0  0
 23 24  1  0  0  0
 24 25  2  0  0  0
 11 12  2  0  0  0
 12 13  1  0  0  0
 12 14  1  0  0  0
 14 15  2  0  0  0
 15 16  1  0  0  0
 16 17  2  0  0  0
  4  5  1  0  0  0
  5  6  2  0  0  0
  6 28  1  0  0  0
 28 30  1  0  0  0
 30 31  2  0  0  0
 30 32  2  0  0  0
 30 33  1  0  0  0
 33 34  2  0  0  0
 34 35  1  0  0  0
 35 36  2  0  0  0
 36 37  1  0  0  0
 36 38  1  0  0  0
 38 39  2  0  0  0
 39 40  1  0  0  0
  6  1  1  0  0  0
 39 33  1  0  0  0
 17  7  1  0  0  0
 15  9  1  0  0  0
 25 20  1  0  0  0
 13 18  1  0  0  0
 13 19  1  0  0  0
 28 29  1  0  0  0
M  END
> <minimizedAffinity>
-5.52691

> <CNNscore>
0.2459354550

> <CNNaffinity>
6.0499382019

> <CNN_VS>
1.4878942966

> <CNNaffinity_variance>
0.0784584135

$$$$
[H]c1nc(OC([H])([H])[H])c(N([H])S(=O)(=O)c2c([H])c([H])c(F)c([H])c2F)c([H])c1-c1nc([H])c2nc(N([H])[H])c(-c3c([H])c([H])c([H])c([H])c3[H])c([H])c2c1[H]


 40 44  0  0  0  0  0  0  0  0999 V2000
   34.1711  -10.2195   36.8730 C   0  0  0  0  0  0  0  0  0  0  0  0
   35.2104  -10.6015   36.1172 N   0  0  0  0  0  0  0  0  0  0  0  0
   35.6375  -11.9007   36.0383 C   0  0  0  0  0  0  0  0  0  0  0  0
   35.0060  -12.8924   36.7458 C   0  0  0  0  0  0  0  0  0  0  0  0
   33.9314  -12.5056   37.5291 C   0  0  0  0  0  0  0  0  0  0  0  0
   33.5072  -11.1803   37.6001 C   0  0  0  0  0  0  0  0  0  0  0  0
   35.4157  -14.3004   36.7031 C   0  0  0  0  0  0  0  0  0  0  0  0
   34.5509  -15.2861   36.3648 C   0  0  0  0  0  0  0  0  0  0  0  0
   34.9528  -16.6279   36.3270 C   0  0  0  0  0  0  0  0  0  0  0  0
   34.0537  -17.6146   35.9795 C   0  0  0  0  0  0  0  0  0  0  0  0
   34.5076  -18.9361   35.9578 C   0  0  0  0  0  0  0  0  0  0  0  0
   35.8271  -19.2165   36.2804 C   0  0  0  0  0  0  0  0  0  0  0  0
   36.2356  -20.5746   36.2340 N   0  0  0  0  0  0  0  0  0  0  0  0
   36.6884  -18.2258   36.6185 N   0  0  0  0  0  0  0  0  0  0  0  0
   36.2555  -16.9539   36.6405 C   0  0  0  0  0  0  0  0  0  0  0  0
   37.1199  -15.9170   36.9843 C   0  0  0  0  0  0  0  0  0  0  0  0
   36.6956  -14.6496   37.0080 N   0  0  0  0  0  0  0  0  0  0  0  0
   35.9399  -21.1437   35.4176 H   0  0  0  0  0  0  0  0  0  0  0  0
   36.8054  -20.9925   36.9777 H   0  0  0  0  0  0  0  0  0  0  0  0
   33.5633  -19.9545   35.6035 C   0  0  0  0  0  0  0  0  0  0  0  0
   32.9344  -20.7033   36.5699 C   0  0  0  0  0  0  0  0  0  0  0  0
   32.0347  -21.6875   36.2638 C   0  0  0  0  0  0  0  0  0  0  0  0
   31.7367  -21.9513   34.9501 C   0  0  0  0  0  0  0  0  0  0  0  0
   32.3454  -21.2236   33.9515 C   0  0  0  0  0  0  0  0  0  0  0  0
   33.2549  -20.2305   34.2937 C   0  0  0  0  0  0  0  0  0  0  0  0
   34.3315   -7.9007   36.0739 C   0  0  0  0  0  0  0  0  0  0  0  0
   33.7823   -8.8679   36.9105 O   0  0  0  0  0  0  0  0  0  0  0  0
   32.4120  -10.7827   38.4049 N   0  0  0  0  0  0  0  0  0  0  0  0
   32.6368  -10.4538   39.3873 H   0  0  0  0  0  0  0  0  0  0  0  0
   30.7661  -10.8105   37.8737 S   0  0  0  0  0  0  0  0  0  0  0  0
   30.1538   -9.4411   38.0671 O   0  0  0  0  0  0  0  0  0  0  0  0
   30.7428  -11.0705   36.3964 O   0  0  0  0  0  0  0  0  0  0  0  0
   29.8178  -12.0127   38.6767 C   0  0  0  0  0  0  0  0  0  0  0  0
   30.3834  -12.8857   39.5757 C   0  0  0  0  0  0  0  0  0  0  0  0
   29.5877  -13.8270   40.1990 C   0  0  0  0  0  0  0  0  0  0  0  0
   28.2408  -13.9019   39.9329 C   0  0  0  0  0  0  0  0  0  0  0  0
   27.4367  -14.8280   40.5410 F   0  0  0  0  0  0  0  0  0  0  0  0
   27.6499  -13.0299   39.0286 C   0  0  0  0  0  0  0  0  0  0  0  0
   28.4714  -12.1018   38.4231 C   0  0  0  0  0  0  0  0  0  0  0  0
   27.9307  -11.2344   37.5351 F   0  0  0  0  0  0  0  0  0  0  0  0
 26 27  1  0  0  0
 27  1  1  0  0  0
  1  2  2  0  0  0
  2  3  1  0  0  0
  3  4  2  0  0  0
  4  7  1  0  0  0
  7  8  2  0  0  0
  8  9  1  0  0  0
  9 10  2  0  0  0
 10 11  1  0  0  0
 11 20  1  0  0  0
 20 21  2  0  0  0
 21 22  1  0  0  0
 22 23  2  0  0  0
 23 24  1  0  0  0
 24 25  2  0  0  0
 11 12  2  0  0  0
 12 13  1  0  0  0
 12 14  1  0  0  0
 14 15  2  0  0  0
 15 16  1  0  0  0
 16 17  2  0  0  0
  4  5  1  0  0  0
  5  6  2  0  0  0
  6 28  1  0  0  0
 28 30  1  0  0  0
 30 31  2  0  0  0
 30 32  2  0  0  0
 30 33  1  0  0  0
 33 34  2  0  0  0
 34 35  1  0  0  0
 35 36  2  0  0  0
 36 37  1  0  0  0
 36 38  1  0  0  0
 38 39  2  0  0  0
 39 40  1  0  0  0
  6  1  1  0  0  0
 39 33  1  0  0  0
 17  7  1  0  0  0
 15  9  1  0  0  0
 25 20  1  0  0  0
 13 18  1  0  0  0
 13 19  1  0  0  0
 28 29  1  0  0  0
M  END
> <minimizedAffinity>
-8.89932

> <CNNscore>
0.2338770628

> <CNNaffinity>
6.9888520241

> <CNN_VS>
1.6345322132

> <CNNaffinity_variance>
0.1196236238

$$$$
[H]c1nc(OC([H])([H])[H])c(N([H])S(=O)(=O)c2c([H])c([H])c(F)c([H])c2F)c([H])c1-c1nc([H])c2nc(N([H])[H])c(-c3c([H])c([H])c([H])c([H])c3[H])c([H])c2c1[H]


 40 44  0  0  0  0  0  0  0  0999 V2000
   42.1861  -20.8927   37.6262 C   0  0  0  0  0  0  0  0  0  0  0  0
   42.0359  -19.5737   37.4388 N   0  0  0  0  0  0  0  0  0  0  0  0
   40.8526  -19.0064   37.0457 C   0  0  0  0  0  0  0  0  0  0  0  0
   39.7422  -19.7806   36.8210 C   0  0  0  0  0  0  0  0  0  0  0  0
   39.8895  -21.1443   37.0125 C   0  0  0  0  0  0  0  0  0  0  0  0
   41.0991  -21.7084   37.4127 C   0  0  0  0  0  0  0  0  0  0  0  0
   38.4483  -19.2329   36.3991 C   0  0  0  0  0  0  0  0  0  0  0  0
   38.0518  -17.9863   36.7497 C   0  0  0  0  0  0  0  0  0  0  0  0
   36.8138  -17.4728   36.3411 C   0  0  0  0  0  0  0  0  0  0  0  0
   36.4316  -16.2000   36.7108 C   0  0  0  0  0  0  0  0  0  0  0  0
   35.1865  -15.7378   36.2758 C   0  0  0  0  0  0  0  0  0  0  0  0
   34.3816  -16.5563   35.4973 C   0  0  0  0  0  0  0  0  0  0  0  0
   33.1315  -16.0326   35.0770 N   0  0  0  0  0  0  0  0  0  0  0  0
   34.7836  -17.8033   35.1496 N   0  0  0  0  0  0  0  0  0  0  0  0
   35.9800  -18.2512   35.5660 C   0  0  0  0  0  0  0  0  0  0  0  0
   36.4172  -19.5285   35.2228 C   0  0  0  0  0  0  0  0  0  0  0  0
   37.6064  -19.9800   35.6337 N   0  0  0  0  0  0  0  0  0  0  0  0
   33.1091  -15.0607   34.7130 H   0  0  0  0  0  0  0  0  0  0  0  0
   32.2700  -16.5873   35.1265 H   0  0  0  0  0  0  0  0  0  0  0  0
   34.7954  -14.4172   36.6723 C   0  0  0  0  0  0  0  0  0  0  0  0
   35.3909  -13.3074   36.1211 C   0  0  0  0  0  0  0  0  0  0  0  0
   35.0455  -12.0343   36.4841 C   0  0  0  0  0  0  0  0  0  0  0  0
   34.0717  -11.8382   37.4315 C   0  0  0  0  0  0  0  0  0  0  0  0
   33.4507  -12.9240   38.0084 C   0  0  0  0  0  0  0  0  0  0  0  0
   33.8231  -14.2047   37.6191 C   0  0  0  0  0  0  0  0  0  0  0  0
   44.6211  -20.7057   37.9035 C   0  0  0  0  0  0  0  0  0  0  0  0
   43.4291  -21.4128   38.0307 O   0  0  0  0  0  0  0  0  0  0  0  0
   41.2525  -23.1031   37.6035 N   0  0  0  0  0  0  0  0  0  0  0  0
   42.0589  -23.5680   37.0962 H   0  0  0  0  0  0  0  0  0  0  0  0
   40.2100  -24.0596   38.5987 S   0  0  0  0  0  0  0  0  0  0  0  0
   40.8395  -25.4159   38.8258 O   0  0  0  0  0  0  0  0  0  0  0  0
   40.1127  -23.4156   39.9501 O   0  0  0  0  0  0  0  0  0  0  0  0
   38.6218  -24.2363   37.9384 C   0  0  0  0  0  0  0  0  0  0  0  0
   37.5086  -23.8332   38.6376 C   0  0  0  0  0  0  0  0  0  0  0  0
   36.2589  -23.9875   38.0699 C   0  0  0  0  0  0  0  0  0  0  0  0
   36.1141  -24.5374   36.8181 C   0  0  0  0  0  0  0  0  0  0  0  0
   34.8839  -24.6981   36.2397 F   0  0  0  0  0  0  0  0  0  0  0  0
   37.2251  -24.9509   36.0955 C   0  0  0  0  0  0  0  0  0  0  0  0
   38.4585  -24.7833   36.6898 C   0  0  0  0  0  0  0  0  0  0  0  0
   39.5652  -25.1750   36.0152 F   0  0  0  0  0  0  0  0  0  0  0  0
 26 27  1  0  0  0
 27  1  1  0  0  0
  1  2  2  0  0  0
  2  3  1  0  0  0
  3  4  2  0  0  0
  4  7  1  0  0  0
  7  8  2  0  0  0
  8  9  1  0  0  0
  9 10  2  0  0  0
 10 11  1  0  0  0
 11 20  1  0  0  0
 20 21  2  0  0  0
 21 22  1  0  0  0
 22 23  2  0  0  0
 23 24  1  0  0  0
 24 25  2  0  0  0
 11 12  2  0  0  0
 12 13  1  0  0  0
 12 14  1  0  0  0
 14 15  2  0  0  0
 15 16  1  0  0  0
 16 17  2  0  0  0
  4  5  1  0  0  0
  5  6  2  0  0  0
  6 28  1  0  0  0
 28 30  1  0  0  0
 30 31  2  0  0  0
 30 32  2  0  0  0
 30 33  1  0  0  0
 33 34  2  0  0  0
 34 35  1  0  0  0
 35 36  2  0  0  0
 36 37  1  0  0  0
 36 38  1  0  0  0
 38 39  2  0  0  0
 39 40  1  0  0  0
  6  1  1  0  0  0
 39 33  1  0  0  0
 17  7  1  0  0  0
 15  9  1  0  0  0
 25 20  1  0  0  0
 13 18  1  0  0  0
 13 19  1  0  0  0
 28 29  1  0  0  0
M  END
> <minimizedAffinity>
-6.22015

> <CNNscore>
0.2068790942

> <CNNaffinity>
6.3600225449

> <CNN_VS>
1.3157557249

> <CNNaffinity_variance>
0.1414305419

$$$$
[H]c1nc(OC([H])([H])[H])c(N([H])S(=O)(=O)c2c([H])c([H])c(F)c([H])c2F)c([H])c1-c1nc([H])c2nc(N([H])[H])c(-c3c([H])c([H])c([H])c([H])c3[H])c([H])c2c1[H]


 40 44  0  0  0  0  0  0  0  0999 V2000
   40.1856  -20.1198   37.7671 C   0  0  0  0  0  0  0  0  0  0  0  0
   39.9630  -19.1384   36.8813 N   0  0  0  0  0  0  0  0  0  0  0  0
   38.7110  -18.8059   36.4358 C   0  0  0  0  0  0  0  0  0  0  0  0
   37.6030  -19.4781   36.8865 C   0  0  0  0  0  0  0  0  0  0  0  0
   37.8249  -20.4935   37.8018 C   0  0  0  0  0  0  0  0  0  0  0  0
   39.1039  -20.8213   38.2469 C   0  0  0  0  0  0  0  0  0  0  0  0
   36.2376  -19.1692   36.4475 C   0  0  0  0  0  0  0  0  0  0  0  0
   35.2397  -20.0817   36.5221 C   0  0  0  0  0  0  0  0  0  0  0  0
   33.9390  -19.7761   36.1001 C   0  0  0  0  0  0  0  0  0  0  0  0
   32.9389  -20.7222   36.1857 C   0  0  0  0  0  0  0  0  0  0  0  0
   31.6599  -20.3644   35.7508 C   0  0  0  0  0  0  0  0  0  0  0  0
   31.4332  -19.0896   35.2532 C   0  0  0  0  0  0  0  0  0  0  0  0
   30.1139  -18.7782   34.8337 N   0  0  0  0  0  0  0  0  0  0  0  0
   32.4359  -18.1804   35.1808 N   0  0  0  0  0  0  0  0  0  0  0  0
   33.6671  -18.5209   35.5979 C   0  0  0  0  0  0  0  0  0  0  0  0
   34.7152  -17.6056   35.5345 C   0  0  0  0  0  0  0  0  0  0  0  0
   35.9422  -17.9380   35.9480 N   0  0  0  0  0  0  0  0  0  0  0  0
   29.3277  -19.0660   35.4476 H   0  0  0  0  0  0  0  0  0  0  0  0
   29.9300  -18.2845   33.9534 H   0  0  0  0  0  0  0  0  0  0  0  0
   30.6299  -21.3573   35.8363 C   0  0  0  0  0  0  0  0  0  0  0  0
   29.4874  -21.1306   36.5667 C   0  0  0  0  0  0  0  0  0  0  0  0
   28.4901  -22.0610   36.6743 C   0  0  0  0  0  0  0  0  0  0  0  0
   28.6170  -23.2702   36.0371 C   0  0  0  0  0  0  0  0  0  0  0  0
   29.7465  -23.5368   35.2952 C   0  0  0  0  0  0  0  0  0  0  0  0
   30.7422  -22.5720   35.2047 C   0  0  0  0  0  0  0  0  0  0  0  0
   42.5895  -20.3767   37.3231 C   0  0  0  0  0  0  0  0  0  0  0  0
   41.4970  -20.4120   38.1847 O   0  0  0  0  0  0  0  0  0  0  0  0
   39.3326  -21.8629   39.1785 N   0  0  0  0  0  0  0  0  0  0  0  0
   40.1798  -22.4770   39.0087 H   0  0  0  0  0  0  0  0  0  0  0  0
   38.3179  -22.1734   40.5445 S   0  0  0  0  0  0  0  0  0  0  0  0
   38.6965  -23.5029   41.1582 O   0  0  0  0  0  0  0  0  0  0  0  0
   38.5955  -21.1379   41.5939 O   0  0  0  0  0  0  0  0  0  0  0  0
   36.6338  -22.1486   40.1540 C   0  0  0  0  0  0  0  0  0  0  0  0
   35.7905  -21.2030   40.6880 C   0  0  0  0  0  0  0  0  0  0  0  0
   34.4528  -21.2162   40.3444 C   0  0  0  0  0  0  0  0  0  0  0  0
   33.9549  -22.1601   39.4775 C   0  0  0  0  0  0  0  0  0  0  0  0
   32.6323  -22.1887   39.1256 F   0  0  0  0  0  0  0  0  0  0  0  0
   34.7893  -23.1237   38.9272 C   0  0  0  0  0  0  0  0  0  0  0  0
   36.1195  -23.0836   39.2901 C   0  0  0  0  0  0  0  0  0  0  0  0
   36.9637  -24.0075   38.7735 F   0  0  0  0  0  0  0  0  0  0  0  0
 26 27  1  0  0  0
 27  1  1  0  0  0
  1  2  2  0  0  0
  2  3  1  0  0  0
  3  4  2  0  0  0
  4  7  1  0  0  0
  7  8  2  0  0  0
  8  9  1  0  0  0
  9 10  2  0  0  0
 10 11  1  0  0  0
 11 20  1  0  0  0
 20 21  2  0  0  0
 21 22  1  0  0  0
 22 23  2  0  0  0
 23 24  1  0  0  0
 24 25  2  0  0  0
 11 12  2  0  0  0
 12 13  1  0  0  0
 12 14  1  0  0  0
 14 15  2  0  0  0
 15 16  1  0  0  0
 16 17  2  0  0  0
  4  5  1  0  0  0
  5  6  2  0  0  0
  6 28  1  0  0  0
 28 30  1  0  0  0
 30 31  2  0  0  0
 30 32  2  0  0  0
 30 33  1  0  0  0
 33 34  2  0  0  0
 34 35  1  0  0  0
 35 36  2  0  0  0
 36 37  1  0  0  0
 36 38  1  0  0  0
 38 39  2  0  0  0
 39 40  1  0  0  0
  6  1  1  0  0  0
 39 33  1  0  0  0
 17  7  1  0  0  0
 15  9  1  0  0  0
 25 20  1  0  0  0
 13 18  1  0  0  0
 13 19  1  0  0  0
 28 29  1  0  0  0
M  END
> <minimizedAffinity>
-5.85654

> <CNNscore>
0.2012649626

> <CNNaffinity>
5.9080171585

> <CNN_VS>
1.1890769005

> <CNNaffinity_variance>
0.3184476793

$$$$
[H]c1nc(OC([H])([H])[H])c(N([H])S(=O)(=O)c2c([H])c([H])c(F)c([H])c2F)c([H])c1-c1nc([H])c2nc(N([H])[H])c(-c3c([H])c([H])c([H])c([H])c3[H])c([H])c2c1[H]


 40 44  0  0  0  0  0  0  0  0999 V2000
   31.9308  -22.1140   34.7993 C   0  0  0  0  0  0  0  0  0  0  0  0
   32.1819  -21.2142   33.8377 N   0  0  0  0  0  0  0  0  0  0  0  0
   32.9857  -20.1217   34.0303 C   0  0  0  0  0  0  0  0  0  0  0  0
   33.5835  -19.8941   35.2442 C   0  0  0  0  0  0  0  0  0  0  0  0
   33.3287  -20.8193   36.2427 C   0  0  0  0  0  0  0  0  0  0  0  0
   32.5092  -21.9265   36.0333 C   0  0  0  0  0  0  0  0  0  0  0  0
   34.4536  -18.7438   35.5122 C   0  0  0  0  0  0  0  0  0  0  0  0
   33.9512  -17.5259   35.8261 C   0  0  0  0  0  0  0  0  0  0  0  0
   34.7915  -16.4338   36.0804 C   0  0  0  0  0  0  0  0  0  0  0  0
   34.2564  -15.2028   36.3982 C   0  0  0  0  0  0  0  0  0  0  0  0
   35.1399  -14.1479   36.6423 C   0  0  0  0  0  0  0  0  0  0  0  0
   36.5079  -14.3623   36.5603 C   0  0  0  0  0  0  0  0  0  0  0  0
   37.3583  -13.2579   36.8260 N   0  0  0  0  0  0  0  0  0  0  0  0
   37.0051  -15.5834   36.2455 N   0  0  0  0  0  0  0  0  0  0  0  0
   36.1586  -16.6001   36.0100 C   0  0  0  0  0  0  0  0  0  0  0  0
   36.6432  -17.8649   35.6848 C   0  0  0  0  0  0  0  0  0  0  0  0
   35.8065  -18.8805   35.4495 N   0  0  0  0  0  0  0  0  0  0  0  0
   37.1397  -12.6625   37.6478 H   0  0  0  0  0  0  0  0  0  0  0  0
   38.1669  -13.0443   36.2319 H   0  0  0  0  0  0  0  0  0  0  0  0
   34.5736  -12.8711   36.9635 C   0  0  0  0  0  0  0  0  0  0  0  0
   35.0683  -11.7167   36.4042 C   0  0  0  0  0  0  0  0  0  0  0  0
   34.5550  -10.4827   36.6965 C   0  0  0  0  0  0  0  0  0  0  0  0
   33.5084  -10.3733   37.5779 C   0  0  0  0  0  0  0  0  0  0  0  0
   32.9838  -11.5060   38.1603 C   0  0  0  0  0  0  0  0  0  0  0  0
   33.5265  -12.7453   37.8437 C   0  0  0  0  0  0  0  0  0  0  0  0
   31.4534  -24.2456   33.6724 C   0  0  0  0  0  0  0  0  0  0  0  0
   31.0956  -23.2154   34.5370 O   0  0  0  0  0  0  0  0  0  0  0  0
   32.2434  -22.8702   37.0551 N   0  0  0  0  0  0  0  0  0  0  0  0
   31.3426  -22.7431   37.5991 H   0  0  0  0  0  0  0  0  0  0  0  0
   33.2953  -24.1860   37.4483 S   0  0  0  0  0  0  0  0  0  0  0  0
   32.6297  -25.4902   37.0695 O   0  0  0  0  0  0  0  0  0  0  0  0
   34.5272  -24.0864   36.5980 O   0  0  0  0  0  0  0  0  0  0  0  0
   33.7560  -24.2072   39.1147 C   0  0  0  0  0  0  0  0  0  0  0  0
   34.2222  -25.3542   39.7124 C   0  0  0  0  0  0  0  0  0  0  0  0
   34.5847  -25.3251   41.0448 C   0  0  0  0  0  0  0  0  0  0  0  0
   34.4858  -24.1669   41.7792 C   0  0  0  0  0  0  0  0  0  0  0  0
   34.8404  -24.1192   43.1005 F   0  0  0  0  0  0  0  0  0  0  0  0
   34.0176  -22.9978   41.1949 C   0  0  0  0  0  0  0  0  0  0  0  0
   33.6637  -23.0598   39.8630 C   0  0  0  0  0  0  0  0  0  0  0  0
   33.2027  -21.9393   39.2588 F   0  0  0  0  0  0  0  0  0  0  0  0
 26 27  1  0  0  0
 27  1  1  0  0  0
  1  2  2  0  0  0
  2  3  1  0  0  0
  3  4  2  0  0  0
  4  7  1  0  0  0
  7  8  2  0  0  0
  8  9  1  0  0  0
  9 10  2  0  0  0
 10 11  1  0  0  0
 11 20  1  0  0  0
 20 21  2  0  0  0
 21 22  1  0  0  0
 22 23  2  0  0  0
 23 24  1  0  0  0
 24 25  2  0  0  0
 11 12  2  0  0  0
 12 13  1  0  0  0
 12 14  1  0  0  0
 14 15  2  0  0  0
 15 16  1  0  0  0
 16 17  2  0  0  0
  4  5  1  0  0  0
  5  6  2  0  0  0
  6 28  1  0  0  0
 28 30  1  0  0  0
 30 31  2  0  0  0
 30 32  2  0  0  0
 30 33  1  0  0  0
 33 34  2  0  0  0
 34 35  1  0  0  0
 35 36  2  0  0  0
 36 37  1  0  0  0
 36 38  1  0  0  0
 38 39  2  0  0  0
 39 40  1  0  0  0
  6  1  1  0  0  0
 39 33  1  0  0  0
 17  7  1  0  0  0
 15  9  1  0  0  0
 25 20  1  0  0  0
 13 18  1  0  0  0
 13 19  1  0  0  0
 28 29  1  0  0  0
M  END
> <minimizedAffinity>
-7.19970

> <CNNscore>
0.1820354909

> <CNNaffinity>
6.1644597054

> <CNN_VS>
1.1221504211

> <CNNaffinity_variance>
0.0494783632

$$$$
[H]c1nc(OC([H])([H])[H])c(N([H])S(=O)(=O)c2c([H])c([H])c(F)c([H])c2F)c([H])c1-c1nc([H])c2nc(N([H])[H])c(-c3c([H])c([H])c([H])c([H])c3[H])c([H])c2c1[H]


 40 44  0  0  0  0  0  0  0  0999 V2000
   34.2230  -11.0939   37.3020 C   0  0  0  0  0  0  0  0  0  0  0  0
   35.2406  -11.3152   36.4577 N   0  0  0  0  0  0  0  0  0  0  0  0
   35.6902  -12.5708   36.1447 C   0  0  0  0  0  0  0  0  0  0  0  0
   35.1055  -13.6840   36.6940 C   0  0  0  0  0  0  0  0  0  0  0  0
   34.0536  -13.4635   37.5673 C   0  0  0  0  0  0  0  0  0  0  0  0
   33.6061  -12.1808   37.8769 C   0  0  0  0  0  0  0  0  0  0  0  0
   35.5412  -15.0534   36.3986 C   0  0  0  0  0  0  0  0  0  0  0  0
   35.5514  -16.0201   37.3470 C   0  0  0  0  0  0  0  0  0  0  0  0
   35.9694  -17.3250   37.0540 C   0  0  0  0  0  0  0  0  0  0  0  0
   35.9710  -18.2929   38.0368 C   0  0  0  0  0  0  0  0  0  0  0  0
   36.3976  -19.5777   37.6900 C   0  0  0  0  0  0  0  0  0  0  0  0
   36.8010  -19.8418   36.3894 C   0  0  0  0  0  0  0  0  0  0  0  0
   37.2164  -21.1654   36.0914 N   0  0  0  0  0  0  0  0  0  0  0  0
   36.7890  -18.8702   35.4442 N   0  0  0  0  0  0  0  0  0  0  0  0
   36.3796  -17.6336   35.7740 C   0  0  0  0  0  0  0  0  0  0  0  0
   36.3574  -16.6170   34.8220 C   0  0  0  0  0  0  0  0  0  0  0  0
   35.9510  -15.3848   35.1435 N   0  0  0  0  0  0  0  0  0  0  0  0
   36.6384  -21.9491   36.4511 H   0  0  0  0  0  0  0  0  0  0  0  0
   38.0597  -21.3548   35.5387 H   0  0  0  0  0  0  0  0  0  0  0  0
   36.4034  -20.5738   38.7205 C   0  0  0  0  0  0  0  0  0  0  0  0
   35.2290  -21.1108   39.1920 C   0  0  0  0  0  0  0  0  0  0  0  0
   35.2008  -22.0569   40.1799 C   0  0  0  0  0  0  0  0  0  0  0  0
   36.3774  -22.4979   40.7325 C   0  0  0  0  0  0  0  0  0  0  0  0
   37.5760  -21.9848   40.2881 C   0  0  0  0  0  0  0  0  0  0  0  0
   37.5724  -21.0250   39.2835 C   0  0  0  0  0  0  0  0  0  0  0  0
   33.9950   -8.7233   36.6938 C   0  0  0  0  0  0  0  0  0  0  0  0
   33.8092   -9.7787   37.5819 O   0  0  0  0  0  0  0  0  0  0  0  0
   32.5342  -11.9537   38.7740 N   0  0  0  0  0  0  0  0  0  0  0  0
   32.7883  -11.6037   39.7418 H   0  0  0  0  0  0  0  0  0  0  0  0
   30.8718  -12.2168   38.3747 S   0  0  0  0  0  0  0  0  0  0  0  0
   30.7330  -12.3592   36.8754 O   0  0  0  0  0  0  0  0  0  0  0  0
   30.4399  -13.5297   38.9580 O   0  0  0  0  0  0  0  0  0  0  0  0
   29.8310  -10.9661   38.9594 C   0  0  0  0  0  0  0  0  0  0  0  0
   28.8951  -11.2138   39.9356 C   0  0  0  0  0  0  0  0  0  0  0  0
   28.0879  -10.1839   40.3778 C   0  0  0  0  0  0  0  0  0  0  0  0
   28.2080   -8.9176   39.8558 C   0  0  0  0  0  0  0  0  0  0  0  0
   27.4169   -7.8848   40.2818 F   0  0  0  0  0  0  0  0  0  0  0  0
   29.1466   -8.6462   38.8695 C   0  0  0  0  0  0  0  0  0  0  0  0
   29.9371   -9.6957   38.4495 C   0  0  0  0  0  0  0  0  0  0  0  0
   30.8639   -9.4692   37.4888 F   0  0  0  0  0  0  0  0  0  0  0  0
 26 27  1  0  0  0
 27  1  1  0  0  0
  1  2  2  0  0  0
  2  3  1  0  0  0
  3  4  2  0  0  0
  4  7  1  0  0  0
  7  8  2  0  0  0
  8  9  1  0  0  0
  9 10  2  0  0  0
 10 11  1  0  0  0
 11 20  1  0  0  0
 20 21  2  0  0  0
 21 22  1  0  0  0
 22 23  2  0  0  0
 23 24  1  0  0  0
 24 25  2  0  0  0
 11 12  2  0  0  0
 12 13  1  0  0  0
 12 14  1  0  0  0
 14 15  2  0  0  0
 15 16  1  0  0  0
 16 17  2  0  0  0
  4  5  1  0  0  0
  5  6  2  0  0  0
  6 28  1  0  0  0
 28 30  1  0  0  0
 30 31  2  0  0  0
 30 32  2  0  0  0
 30 33  1  0  0  0
 33 34  2  0  0  0
 34 35  1  0  0  0
 35 36  2  0  0  0
 36 37  1  0  0  0
 36 38  1  0  0  0
 38 39  2  0  0  0
 39 40  1  0  0  0
  6  1  1  0  0  0
 39 33  1  0  0  0
 17  7  1  0  0  0
 15  9  1  0  0  0
 25 20  1  0  0  0
 13 18  1  0  0  0
 13 19  1  0  0  0
 28 29  1  0  0  0
M  END
> <minimizedAffinity>
-7.37662

> <CNNscore>
0.1745443046

> <CNNaffinity>
6.5954651833

> <CNN_VS>
1.1512008905

> <CNNaffinity_variance>
0.1630961448

$$$$
[H]c1nc(OC([H])([H])[H])c(N([H])S(=O)(=O)c2c([H])c([H])c(F)c([H])c2F)c([H])c1-c1nc([H])c2nc(N([H])[H])c(-c3c([H])c([H])c([H])c([H])c3[H])c([H])c2c1[H]


 40 44  0  0  0  0  0  0  0  0999 V2000
   31.5180  -22.1340   37.2881 C   0  0  0  0  0  0  0  0  0  0  0  0
   31.9070  -22.5229   38.5107 N   0  0  0  0  0  0  0  0  0  0  0  0
   33.1868  -22.3626   38.9722 C   0  0  0  0  0  0  0  0  0  0  0  0
   34.1504  -21.7834   38.1855 C   0  0  0  0  0  0  0  0  0  0  0  0
   33.7562  -21.3790   36.9210 C   0  0  0  0  0  0  0  0  0  0  0  0
   32.4507  -21.5479   36.4641 C   0  0  0  0  0  0  0  0  0  0  0  0
   35.5367  -21.5844   38.6224 C   0  0  0  0  0  0  0  0  0  0  0  0
   36.4959  -21.1416   37.7752 C   0  0  0  0  0  0  0  0  0  0  0  0
   37.8172  -20.9548   38.2030 C   0  0  0  0  0  0  0  0  0  0  0  0
   38.7771  -20.5028   37.3216 C   0  0  0  0  0  0  0  0  0  0  0  0
   40.0789  -20.3341   37.8010 C   0  0  0  0  0  0  0  0  0  0  0  0
   40.3669  -20.6203   39.1273 C   0  0  0  0  0  0  0  0  0  0  0  0
   41.7032  -20.4232   39.5620 N   0  0  0  0  0  0  0  0  0  0  0  0
   39.4027  -21.0635   39.9708 N   0  0  0  0  0  0  0  0  0  0  0  0
   38.1498  -21.2270   39.5133 C   0  0  0  0  0  0  0  0  0  0  0  0
   37.1402  -21.6809   40.3590 C   0  0  0  0  0  0  0  0  0  0  0  0
   35.8919  -21.8455   39.9102 N   0  0  0  0  0  0  0  0  0  0  0  0
   42.1845  -19.5497   39.2735 H   0  0  0  0  0  0  0  0  0  0  0  0
   42.1892  -21.1147   40.1433 H   0  0  0  0  0  0  0  0  0  0  0  0
   41.0705  -19.8720   36.8751 C   0  0  0  0  0  0  0  0  0  0  0  0
   41.3394  -18.5308   36.7372 C   0  0  0  0  0  0  0  0  0  0  0  0
   42.2738  -18.0578   35.8568 C   0  0  0  0  0  0  0  0  0  0  0  0
   42.9781  -18.9389   35.0746 C   0  0  0  0  0  0  0  0  0  0  0  0
   42.7384  -20.2911   35.1823 C   0  0  0  0  0  0  0  0  0  0  0  0
   41.7832  -20.7411   36.0853 C   0  0  0  0  0  0  0  0  0  0  0  0
   29.1259  -21.5748   37.3681 C   0  0  0  0  0  0  0  0  0  0  0  0
   30.1874  -22.3273   36.8741 O   0  0  0  0  0  0  0  0  0  0  0  0
   32.0478  -21.1399   35.1693 N   0  0  0  0  0  0  0  0  0  0  0  0
   31.8134  -21.9089   34.4784 H   0  0  0  0  0  0  0  0  0  0  0  0
   31.9261  -19.4868   34.6747 S   0  0  0  0  0  0  0  0  0  0  0  0
   31.4499  -19.4267   33.2405 O   0  0  0  0  0  0  0  0  0  0  0  0
   30.8621  -18.8178   35.4937 O   0  0  0  0  0  0  0  0  0  0  0  0
   33.4101  -18.6178   34.8530 C   0  0  0  0  0  0  0  0  0  0  0  0
   33.5131  -17.5486   35.7112 C   0  0  0  0  0  0  0  0  0  0  0  0
   34.7196  -16.8862   35.8273 C   0  0  0  0  0  0  0  0  0  0  0  0
   35.8159  -17.2813   35.0978 C   0  0  0  0  0  0  0  0  0  0  0  0
   37.0195  -16.6370   35.1998 F   0  0  0  0  0  0  0  0  0  0  0  0
   35.7333  -18.3583   34.2257 C   0  0  0  0  0  0  0  0  0  0  0  0
   34.5150  -18.9985   34.1324 C   0  0  0  0  0  0  0  0  0  0  0  0
   34.3962  -20.0534   33.2920 F   0  0  0  0  0  0  0  0  0  0  0  0
 26 27  1  0  0  0
 27  1  1  0  0  0
  1  2  2  0  0  0
  2  3  1  0  0  0
  3  4  2  0  0  0
  4  7  1  0  0  0
  7  8  2  0  0  0
  8  9  1  0  0  0
  9 10  2  0  0  0
 10 11  1  0  0  0
 11 20  1  0  0  0
 20 21  2  0  0  0
 21 22  1  0  0  0
 22 23  2  0  0  0
 23 24  1  0  0  0
 24 25  2  0  0  0
 11 12  2  0  0  0
 12 13  1  0  0  0
 12 14  1  0  0  0
 14 15  2  0  0  0
 15 16  1  0  0  0
 16 17  2  0  0  0
  4  5  1  0  0  0
  5  6  2  0  0  0
  6 28  1  0  0  0
 28 30  1  0  0  0
 30 31  2  0  0  0
 30 32  2  0  0  0
 30 33  1  0  0  0
 33 34  2  0  0  0
 34 35  1  0  0  0
 35 36  2  0  0  0
 36 37  1  0  0  0
 36 38  1  0  0  0
 38 39  2  0  0  0
 39 40  1  0  0  0
  6  1  1  0  0  0
 39 33  1  0  0  0
 17  7  1  0  0  0
 15  9  1  0  0  0
 25 20  1  0  0  0
 13 18  1  0  0  0
 13 19  1  0  0  0
 28 29  1  0  0  0
M  END
> <minimizedAffinity>
-6.41462

> <CNNscore>
0.1275138110

> <CNNaffinity>
5.5480394363

> <CNN_VS>
0.7074516416

> <CNNaffinity_variance>
0.2766420245

$$$$
[H]c1nc(OC([H])([H])[H])c(N([H])S(=O)(=O)c2c([H])c([H])c(F)c([H])c2F)c([H])c1-c1nc([H])c2nc(N([H])[H])c(-c3c([H])c([H])c([H])c([H])c3[H])c([H])c2c1[H]


 40 44  0  0  0  0  0  0  0  0999 V2000
   30.8081  -21.5338   35.1709 C   0  0  0  0  0  0  0  0  0  0  0  0
   30.4739  -20.2375   35.2419 N   0  0  0  0  0  0  0  0  0  0  0  0
   31.3957  -19.2378   35.4084 C   0  0  0  0  0  0  0  0  0  0  0  0
   32.7333  -19.5253   35.5126 C   0  0  0  0  0  0  0  0  0  0  0  0
   33.0865  -20.8624   35.4403 C   0  0  0  0  0  0  0  0  0  0  0  0
   32.1385  -21.8694   35.2705 C   0  0  0  0  0  0  0  0  0  0  0  0
   33.7675  -18.5003   35.6919 C   0  0  0  0  0  0  0  0  0  0  0  0
   33.4550  -17.2028   35.9218 C   0  0  0  0  0  0  0  0  0  0  0  0
   34.4508  -16.2318   36.0918 C   0  0  0  0  0  0  0  0  0  0  0  0
   34.1080  -14.9162   36.3248 C   0  0  0  0  0  0  0  0  0  0  0  0
   35.1410  -13.9890   36.4870 C   0  0  0  0  0  0  0  0  0  0  0  0
   36.4610  -14.4083   36.4109 C   0  0  0  0  0  0  0  0  0  0  0  0
   37.4689  -13.4260   36.5914 N   0  0  0  0  0  0  0  0  0  0  0  0
   36.7679  -15.7084   36.1805 N   0  0  0  0  0  0  0  0  0  0  0  0
   35.7773  -16.6028   36.0239 C   0  0  0  0  0  0  0  0  0  0  0  0
   36.0651  -17.9447   35.7862 C   0  0  0  0  0  0  0  0  0  0  0  0
   35.0843  -18.8394   35.6297 N   0  0  0  0  0  0  0  0  0  0  0  0
   37.3545  -12.7493   37.3702 H   0  0  0  0  0  0  0  0  0  0  0  0
   38.2896  -13.3760   35.9779 H   0  0  0  0  0  0  0  0  0  0  0  0
   34.7740  -12.6234   36.7203 C   0  0  0  0  0  0  0  0  0  0  0  0
   33.8048  -12.2983   37.6396 C   0  0  0  0  0  0  0  0  0  0  0  0
   33.4267  -11.0055   37.8793 C   0  0  0  0  0  0  0  0  0  0  0  0
   34.0252   -9.9827   37.1865 C   0  0  0  0  0  0  0  0  0  0  0  0
   35.0009  -10.2662   36.2564 C   0  0  0  0  0  0  0  0  0  0  0  0
   35.3634  -11.5890   36.0349 C   0  0  0  0  0  0  0  0  0  0  0  0
   28.6078  -22.4952   35.6958 C   0  0  0  0  0  0  0  0  0  0  0  0
   29.8125  -22.5128   34.9990 O   0  0  0  0  0  0  0  0  0  0  0  0
   32.4978  -23.2375   35.2020 N   0  0  0  0  0  0  0  0  0  0  0  0
   32.3750  -23.7163   34.2643 H   0  0  0  0  0  0  0  0  0  0  0  0
   33.1098  -24.1410   36.5441 S   0  0  0  0  0  0  0  0  0  0  0  0
   33.2141  -25.6001   36.1601 O   0  0  0  0  0  0  0  0  0  0  0  0
   34.5103  -23.6861   36.8304 O   0  0  0  0  0  0  0  0  0  0  0  0
   32.1515  -23.9614   37.9720 C   0  0  0  0  0  0  0  0  0  0  0  0
   32.6595  -23.3674   39.1031 C   0  0  0  0  0  0  0  0  0  0  0  0
   31.8571  -23.2391   40.2200 C   0  0  0  0  0  0  0  0  0  0  0  0
   30.5605  -23.6964   40.2153 C   0  0  0  0  0  0  0  0  0  0  0  0
   29.7508  -23.5779   41.3127 F   0  0  0  0  0  0  0  0  0  0  0  0
   30.0282  -24.2992   39.0836 C   0  0  0  0  0  0  0  0  0  0  0  0
   30.8547  -24.4123   37.9851 C   0  0  0  0  0  0  0  0  0  0  0  0
   30.3705  -24.9948   36.8628 F   0  0  0  0  0  0  0  0  0  0  0  0
 26 27  1  0  0  0
 27  1  1  0  0  0
  1  2  2  0  0  0
  2  3  1  0  0  0
  3  4  2  0  0  0
  4  7  1  0  0  0
  7  8  2  0  0  0
  8  9  1  0  0  0
  9 10  2  0  0  0
 10 11  1  0  0  0
 11 20  1  0  0  0
 20 21  2  0  0  0
 21 22  1  0  0  0
 22 23  2  0  0  0
 23 24  1  0  0  0
 24 25  2  0  0  0
 11 12  2  0  0  0
 12 13  1  0  0  0
 12 14  1  0  0  0
 14 15  2  0  0  0
 15 16  1  0  0  0
 16 17  2  0  0  0
  4  5  1  0  0  0
  5  6  2  0  0  0
  6 28  1  0  0  0
 28 30  1  0  0  0
 30 31  2  0  0  0
 30 32  2  0  0  0
 30 33  1  0  0  0
 33 34  2  0  0  0
 34 35  1  0  0  0
 35 36  2  0  0  0
 36 37  1  0  0  0
 36 38  1  0  0  0
 38 39  2  0  0  0
 39 40  1  0  0  0
  6  1  1  0  0  0
 39 33  1  0  0  0
 17  7  1  0  0  0
 15  9  1  0  0  0
 25 20  1  0  0  0
 13 18  1  0  0  0
 13 19  1  0  0  0
 28 29  1  0  0  0
M  END
> <minimizedAffinity>
-7.49647

> <CNNscore>
0.1243068948

> <CNNaffinity>
5.8709554672

> <CNN_VS>
0.7298002243

> <CNNaffinity_variance>
0.1790348440

$$$$
[H]c1c([H])c(S(=O)(=O)C([H])([H])C([H])([H])C([H])([H])C([H])([H])C([H])([H])C([H])([H])[H])c(Cl)c(Cl)c1C(=O)C([H])([H])C([H])([H])N1C([H])([H])C1([H])C([H])([H])[H]


 25 26  0  0  0  0  0  0  0  0999 V2000
   34.3805  -14.7177   36.5569 C   0  0  0  0  0  0  0  0  0  0  0  0
   33.5124  -15.4314   35.7485 C   0  0  0  0  0  0  0  0  0  0  0  0
   33.8257  -16.6925   35.3170 C   0  0  0  0  0  0  0  0  0  0  0  0
   34.9960  -17.3009   35.6632 C   0  0  0  0  0  0  0  0  0  0  0  0
   35.8919  -16.5964   36.4783 C   0  0  0  0  0  0  0  0  0  0  0  0
   37.4103  -17.3736   36.9250 Cl  0  0  0  0  0  0  0  0  0  0  0  0
   35.5658  -15.3281   36.9017 C   0  0  0  0  0  0  0  0  0  0  0  0
   36.6903  -14.4473   37.9068 Cl  0  0  0  0  0  0  0  0  0  0  0  0
   33.9167  -13.1430   37.1621 S   0  0  0  0  0  0  0  0  0  0  0  0
   34.9054  -12.1450   36.5561 O   0  0  0  0  0  0  0  0  0  0  0  0
   33.9355  -13.0868   38.6368 O   0  0  0  0  0  0  0  0  0  0  0  0
   32.3034  -12.8155   36.4899 C   0  0  0  0  0  0  0  0  0  0  0  0
   31.7082  -11.5531   37.0066 C   0  0  0  0  0  0  0  0  0  0  0  0
   30.4416  -11.9514   37.7813 C   0  0  0  0  0  0  0  0  0  0  0  0
   29.3743  -10.9182   37.5529 C   0  0  0  0  0  0  0  0  0  0  0  0
   28.1656  -12.5248   38.8989 C   0  0  0  0  0  0  0  0  0  0  0  0
   28.0262  -11.2448   38.0844 C   0  0  0  0  0  0  0  0  0  0  0  0
   35.2999  -18.7157   35.3176 C   0  0  0  0  0  0  0  0  0  0  0  0
   35.1024  -19.5879   36.1137 O   0  0  0  0  0  0  0  0  0  0  0  0
   35.8436  -18.9097   33.9757 C   0  0  0  0  0  0  0  0  0  0  0  0
   37.3109  -18.9758   33.8150 C   0  0  0  0  0  0  0  0  0  0  0  0
   38.0501  -20.0803   34.2153 N   0  0  0  0  0  0  0  0  0  0  0  0
   38.9421  -20.3574   35.2354 C   0  0  0  0  0  0  0  0  0  0  0  0
   39.4766  -20.0548   33.8341 C   0  0  0  0  0  0  0  0  0  0  0  0
   40.1178  -18.7110   33.6708 C   0  0  0  0  0  0  0  0  0  0  0  0
 16 17  1  0  0  0
 17 15  1  0  0  0
 15 14  1  0  0  0
 14 13  1  0  0  0
 13 12  1  0  0  0
 12  9  1  0  0  0
  9 10  2  0  0  0
  9 11  2  0  0  0
  9  1  1  0  0  0
  1  2  2  0  0  0
  2  3  1  0  0  0
  3  4  2  0  0  0
  4 18  1  0  0  0
 18 19  2  0  0  0
 18 20  1  0  0  0
 20 21  1  0  0  0
 21 22  1  0  0  0
 22 23  1  0  0  0
 23 24  1  0  0  0
 24 25  1  0  0  0
  4  5  1  0  0  0
  5  6  1  0  0  0
  5  7  2  0  0  0
  7  8  1  0  0  0
  7  1  1  0  0  0
 24 22  1  0  0  0
M  END
> <minimizedAffinity>
-6.00382

> <CNNscore>
0.5406782627

> <CNNaffinity>
5.9605245590

> <CNN_VS>
3.2227261066

> <CNNaffinity_variance>
0.0946274549

$$$$
[H]c1c([H])c(S(=O)(=O)C([H])([H])C([H])([H])C([H])([H])C([H])([H])C([H])([H])C([H])([H])[H])c(Cl)c(Cl)c1C(=O)C([H])([H])C([H])([H])N1C([H])([H])C1([H])C([H])([H])[H]


 25 26  0  0  0  0  0  0  0  0999 V2000
   34.5283  -14.8628   36.4937 C   0  0  0  0  0  0  0  0  0  0  0  0
   33.6750  -15.5613   35.6568 C   0  0  0  0  0  0  0  0  0  0  0  0
   33.9808  -16.8273   35.2344 C   0  0  0  0  0  0  0  0  0  0  0  0
   35.1288  -17.4556   35.6179 C   0  0  0  0  0  0  0  0  0  0  0  0
   36.0095  -16.7668   36.4624 C   0  0  0  0  0  0  0  0  0  0  0  0
   37.4991  -17.5698   36.9575 Cl  0  0  0  0  0  0  0  0  0  0  0  0
   35.6912  -15.4933   36.8762 C   0  0  0  0  0  0  0  0  0  0  0  0
   36.7971  -14.6321   37.9183 Cl  0  0  0  0  0  0  0  0  0  0  0  0
   34.0717  -13.2808   37.0850 S   0  0  0  0  0  0  0  0  0  0  0  0
   35.1176  -12.3045   36.5428 O   0  0  0  0  0  0  0  0  0  0  0  0
   34.0101  -13.2349   38.5589 O   0  0  0  0  0  0  0  0  0  0  0  0
   32.5071  -12.9072   36.3272 C   0  0  0  0  0  0  0  0  0  0  0  0
   31.5327  -12.3088   37.2797 C   0  0  0  0  0  0  0  0  0  0  0  0
   32.1383  -10.9748   37.7452 C   0  0  0  0  0  0  0  0  0  0  0  0
   31.2383   -9.8471   37.3243 C   0  0  0  0  0  0  0  0  0  0  0  0
   33.3975   -8.7805   37.0919 C   0  0  0  0  0  0  0  0  0  0  0  0
   31.8948   -8.5305   37.1197 C   0  0  0  0  0  0  0  0  0  0  0  0
   35.4197  -18.8753   35.2809 C   0  0  0  0  0  0  0  0  0  0  0  0
   35.0585  -19.7551   36.0082 O   0  0  0  0  0  0  0  0  0  0  0  0
   36.1615  -19.0643   34.0367 C   0  0  0  0  0  0  0  0  0  0  0  0
   37.4834  -19.7215   34.0999 C   0  0  0  0  0  0  0  0  0  0  0  0
   38.6512  -19.0725   33.7236 N   0  0  0  0  0  0  0  0  0  0  0  0
   39.8720  -19.4565   33.1992 C   0  0  0  0  0  0  0  0  0  0  0  0
   39.7598  -19.1576   34.6956 C   0  0  0  0  0  0  0  0  0  0  0  0
   39.7943  -20.3575   35.5915 C   0  0  0  0  0  0  0  0  0  0  0  0
 16 17  1  0  0  0
 17 15  1  0  0  0
 15 14  1  0  0  0
 14 13  1  0  0  0
 13 12  1  0  0  0
 12  9  1  0  0  0
  9 10  2  0  0  0
  9 11  2  0  0  0
  9  1  1  0  0  0
  1  2  2  0  0  0
  2  3  1  0  0  0
  3  4  2  0  0  0
  4 18  1  0  0  0
 18 19  2  0  0  0
 18 20  1  0  0  0
 20 21  1  0  0  0
 21 22  1  0  0  0
 22 23  1  0  0  0
 23 24  1  0  0  0
 24 25  1  0  0  0
  4  5  1  0  0  0
  5  6  1  0  0  0
  5  7  2  0  0  0
  7  8  1  0  0  0
  7  1  1  0  0  0
 24 22  1  0  0  0
M  END
> <minimizedAffinity>
-6.23378

> <CNNscore>
0.5339937806

> <CNNaffinity>
5.9088144302

> <CNN_VS>
3.1552700996

> <CNNaffinity_variance>
0.0875679627

$$$$
[H]c1c([H])c(S(=O)(=O)C([H])([H])C([H])([H])C([H])([H])C([H])([H])C([H])([H])C([H])([H])[H])c(Cl)c(Cl)c1C(=O)C([H])([H])C([H])([H])N1C([H])([H])C1([H])C([H])([H])[H]


 25 26  0  0  0  0  0  0  0  0999 V2000
   34.4035  -14.7459   36.4644 C   0  0  0  0  0  0  0  0  0  0  0  0
   33.5177  -15.4049   35.6293 C   0  0  0  0  0  0  0  0  0  0  0  0
   33.7772  -16.6740   35.1858 C   0  0  0  0  0  0  0  0  0  0  0  0
   34.9091  -17.3441   35.5457 C   0  0  0  0  0  0  0  0  0  0  0  0
   35.8222  -16.6957   36.3878 C   0  0  0  0  0  0  0  0  0  0  0  0
   37.2913  -17.5528   36.8524 Cl  0  0  0  0  0  0  0  0  0  0  0  0
   35.5503  -15.4186   36.8231 C   0  0  0  0  0  0  0  0  0  0  0  0
   36.6965  -14.6079   37.8621 Cl  0  0  0  0  0  0  0  0  0  0  0  0
   34.0056  -13.1585   37.0832 S   0  0  0  0  0  0  0  0  0  0  0  0
   35.0298  -12.1960   36.4786 O   0  0  0  0  0  0  0  0  0  0  0  0
   34.0346  -13.1136   38.5581 O   0  0  0  0  0  0  0  0  0  0  0  0
   32.4030  -12.7626   36.4224 C   0  0  0  0  0  0  0  0  0  0  0  0
   31.4797  -12.2006   37.4453 C   0  0  0  0  0  0  0  0  0  0  0  0
   31.1526  -10.7664   36.9990 C   0  0  0  0  0  0  0  0  0  0  0  0
   32.0320   -9.8017   37.7440 C   0  0  0  0  0  0  0  0  0  0  0  0
   33.8891   -8.6553   36.6997 C   0  0  0  0  0  0  0  0  0  0  0  0
   32.4018   -8.5608   37.0162 C   0  0  0  0  0  0  0  0  0  0  0  0
   35.1499  -18.7674   35.1856 C   0  0  0  0  0  0  0  0  0  0  0  0
   35.7043  -19.0461   34.1616 O   0  0  0  0  0  0  0  0  0  0  0  0
   34.6545  -19.7333   36.1632 C   0  0  0  0  0  0  0  0  0  0  0  0
   33.1946  -19.8484   36.3594 C   0  0  0  0  0  0  0  0  0  0  0  0
   32.4675  -20.9319   35.8862 N   0  0  0  0  0  0  0  0  0  0  0  0
   32.1502  -21.4430   34.6409 C   0  0  0  0  0  0  0  0  0  0  0  0
   31.1104  -20.6143   35.3979 C   0  0  0  0  0  0  0  0  0  0  0  0
   30.8807  -19.2339   34.8634 C   0  0  0  0  0  0  0  0  0  0  0  0
 16 17  1  0  0  0
 17 15  1  0  0  0
 15 14  1  0  0  0
 14 13  1  0  0  0
 13 12  1  0  0  0
 12  9  1  0  0  0
  9 10  2  0  0  0
  9 11  2  0  0  0
  9  1  1  0  0  0
  1  2  2  0  0  0
  2  3  1  0  0  0
  3  4  2  0  0  0
  4 18  1  0  0  0
 18 19  2  0  0  0
 18 20  1  0  0  0
 20 21  1  0  0  0
 21 22  1  0  0  0
 22 23  1  0  0  0
 23 24  1  0  0  0
 24 25  1  0  0  0
  4  5  1  0  0  0
  5  6  1  0  0  0
  5  7  2  0  0  0
  7  8  1  0  0  0
  7  1  1  0  0  0
 24 22  1  0  0  0
M  END
> <minimizedAffinity>
-6.28900

> <CNNscore>
0.3962064683

> <CNNaffinity>
5.8407773972

> <CNN_VS>
2.3141536713

> <CNNaffinity_variance>
0.1314921677

$$$$
[H]c1c([H])c(S(=O)(=O)C([H])([H])C([H])([H])C([H])([H])C([H])([H])C([H])([H])C([H])([H])[H])c(Cl)c(Cl)c1C(=O)C([H])([H])C([H])([H])N1C([H])([H])C1([H])C([H])([H])[H]


 25 26  0  0  0  0  0  0  0  0999 V2000
   34.8393  -16.8450   35.7833 C   0  0  0  0  0  0  0  0  0  0  0  0
   33.7300  -16.0953   35.4314 C   0  0  0  0  0  0  0  0  0  0  0  0
   33.6191  -14.7821   35.8024 C   0  0  0  0  0  0  0  0  0  0  0  0
   34.5895  -14.1551   36.5269 C   0  0  0  0  0  0  0  0  0  0  0  0
   35.7203  -14.8949   36.8975 C   0  0  0  0  0  0  0  0  0  0  0  0
   36.9766  -14.0934   37.8400 Cl  0  0  0  0  0  0  0  0  0  0  0  0
   35.8169  -16.2152   36.5208 C   0  0  0  0  0  0  0  0  0  0  0  0
   37.2216  -17.1385   36.9953 Cl  0  0  0  0  0  0  0  0  0  0  0  0
   34.9929  -18.4953   35.2233 S   0  0  0  0  0  0  0  0  0  0  0  0
   34.8151  -19.3827   36.4569 O   0  0  0  0  0  0  0  0  0  0  0  0
   36.2930  -18.7417   34.5697 O   0  0  0  0  0  0  0  0  0  0  0  0
   33.6188  -18.7713   34.1290 C   0  0  0  0  0  0  0  0  0  0  0  0
   33.3430  -20.2159   33.9017 C   0  0  0  0  0  0  0  0  0  0  0  0
   32.0156  -20.5253   34.6127 C   0  0  0  0  0  0  0  0  0  0  0  0
   31.3307  -19.2357   34.9688 C   0  0  0  0  0  0  0  0  0  0  0  0
   29.4349  -20.5984   35.6036 C   0  0  0  0  0  0  0  0  0  0  0  0
   29.8457  -19.2686   34.9838 C   0  0  0  0  0  0  0  0  0  0  0  0
   34.5539  -12.6986   36.8281 C   0  0  0  0  0  0  0  0  0  0  0  0
   35.2009  -11.9308   36.1758 O   0  0  0  0  0  0  0  0  0  0  0  0
   33.6952  -12.3315   37.9514 C   0  0  0  0  0  0  0  0  0  0  0  0
   32.2594  -12.6728   37.8789 C   0  0  0  0  0  0  0  0  0  0  0  0
   31.3418  -11.8739   37.2108 N   0  0  0  0  0  0  0  0  0  0  0  0
   30.7802  -10.6269   37.4169 C   0  0  0  0  0  0  0  0  0  0  0  0
   29.9761  -11.8790   37.7728 C   0  0  0  0  0  0  0  0  0  0  0  0
   29.8399  -12.1560   39.2386 C   0  0  0  0  0  0  0  0  0  0  0  0
 16 17  1  0  0  0
 17 15  1  0  0  0
 15 14  1  0  0  0
 14 13  1  0  0  0
 13 12  1  0  0  0
 12  9  1  0  0  0
  9 10  2  0  0  0
  9 11  2  0  0  0
  9  1  1  0  0  0
  1  2  2  0  0  0
  2  3  1  0  0  0
  3  4  2  0  0  0
  4 18  1  0  0  0
 18 19  2  0  0  0
 18 20  1  0  0  0
 20 21  1  0  0  0
 21 22  1  0  0  0
 22 23  1  0  0  0
 23 24  1  0  0  0
 24 25  1  0  0  0
  4  5  1  0  0  0
  5  6  1  0  0  0
  5  7  2  0  0  0
  7  8  1  0  0  0
  7  1  1  0  0  0
 24 22  1  0  0  0
M  END
> <minimizedAffinity>
-6.65210

> <CNNscore>
0.3831948936

> <CNNaffinity>
5.9791655540

> <CNN_VS>
2.2911856174

> <CNNaffinity_variance>
0.1688417494

$$$$
[H]c1c([H])c(S(=O)(=O)C([H])([H])C([H])([H])C([H])([H])C([H])([H])C([H])([H])C([H])([H])[H])c(Cl)c(Cl)c1C(=O)C([H])([H])C([H])([H])N1C([H])([H])C1([H])C([H])([H])[H]


 25 26  0  0  0  0  0  0  0  0999 V2000
   34.5272  -14.8049   36.4341 C   0  0  0  0  0  0  0  0  0  0  0  0
   33.5882  -15.5035   35.6947 C   0  0  0  0  0  0  0  0  0  0  0  0
   33.8051  -16.8045   35.3272 C   0  0  0  0  0  0  0  0  0  0  0  0
   34.9450  -17.4687   35.6724 C   0  0  0  0  0  0  0  0  0  0  0  0
   35.9114  -16.7808   36.4182 C   0  0  0  0  0  0  0  0  0  0  0  0
   37.3909  -17.6305   36.8629 Cl  0  0  0  0  0  0  0  0  0  0  0  0
   35.6818  -15.4722   36.7775 C   0  0  0  0  0  0  0  0  0  0  0  0
   36.8939  -14.6131   37.6960 Cl  0  0  0  0  0  0  0  0  0  0  0  0
   34.1861  -13.1719   36.9614 S   0  0  0  0  0  0  0  0  0  0  0  0
   35.1292  -12.2627   36.1710 O   0  0  0  0  0  0  0  0  0  0  0  0
   34.3768  -13.0063   38.4155 O   0  0  0  0  0  0  0  0  0  0  0  0
   32.5172  -12.8309   36.4514 C   0  0  0  0  0  0  0  0  0  0  0  0
   31.6465  -12.3980   37.5780 C   0  0  0  0  0  0  0  0  0  0  0  0
   31.3533  -10.9053   37.3561 C   0  0  0  0  0  0  0  0  0  0  0  0
   29.8795  -10.6593   37.5176 C   0  0  0  0  0  0  0  0  0  0  0  0
   27.6406  -11.3237   38.1499 C   0  0  0  0  0  0  0  0  0  0  0  0
   29.1040  -11.7475   38.1663 C   0  0  0  0  0  0  0  0  0  0  0  0
   35.1455  -18.9175   35.3997 C   0  0  0  0  0  0  0  0  0  0  0  0
   35.7456  -19.2716   34.4261 O   0  0  0  0  0  0  0  0  0  0  0  0
   34.5540  -19.8100   36.3935 C   0  0  0  0  0  0  0  0  0  0  0  0
   33.3911  -20.6308   35.9968 C   0  0  0  0  0  0  0  0  0  0  0  0
   32.0864  -20.2512   36.2802 N   0  0  0  0  0  0  0  0  0  0  0  0
   30.8265  -20.6981   35.9256 C   0  0  0  0  0  0  0  0  0  0  0  0
   31.4129  -19.4732   35.2209 C   0  0  0  0  0  0  0  0  0  0  0  0
   31.8646  -19.7020   33.8112 C   0  0  0  0  0  0  0  0  0  0  0  0
 16 17  1  0  0  0
 17 15  1  0  0  0
 15 14  1  0  0  0
 14 13  1  0  0  0
 13 12  1  0  0  0
 12  9  1  0  0  0
  9 10  2  0  0  0
  9 11  2  0  0  0
  9  1  1  0  0  0
  1  2  2  0  0  0
  2  3  1  0  0  0
  3  4  2  0  0  0
  4 18  1  0  0  0
 18 19  2  0  0  0
 18 20  1  0  0  0
 20 21  1  0  0  0
 21 22  1  0  0  0
 22 23  1  0  0  0
 23 24  1  0  0  0
 24 25  1  0  0  0
  4  5  1  0  0  0
  5  6  1  0  0  0
  5  7  2  0  0  0
  7  8  1  0  0  0
  7  1  1  0  0  0
 24 22  1  0  0  0
M  END
> <minimizedAffinity>
-6.36283

> <CNNscore>
0.3218171597

> <CNNaffinity>
5.9149932861

> <CNN_VS>
1.9035463333

> <CNNaffinity_variance>
0.1623774022

$$$$
[H]c1c([H])c(S(=O)(=O)C([H])([H])C([H])([H])C([H])([H])C([H])([H])C([H])([H])C([H])([H])[H])c(Cl)c(Cl)c1C(=O)C([H])([H])C([H])([H])N1C([H])([H])C1([H])C([H])([H])[H]


 25 26  0  0  0  0  0  0  0  0999 V2000
   33.2232  -20.7500   36.4363 C   0  0  0  0  0  0  0  0  0  0  0  0
   33.9321  -20.5576   37.6097 C   0  0  0  0  0  0  0  0  0  0  0  0
   35.0430  -19.7578   37.6401 C   0  0  0  0  0  0  0  0  0  0  0  0
   35.4974  -19.1157   36.5261 C   0  0  0  0  0  0  0  0  0  0  0  0
   34.7977  -19.2980   35.3258 C   0  0  0  0  0  0  0  0  0  0  0  0
   35.3826  -18.4766   33.8795 Cl  0  0  0  0  0  0  0  0  0  0  0  0
   33.6849  -20.1078   35.3091 C   0  0  0  0  0  0  0  0  0  0  0  0
   32.8224  -20.3436   33.8087 Cl  0  0  0  0  0  0  0  0  0  0  0  0
   31.7598  -21.7088   36.4461 S   0  0  0  0  0  0  0  0  0  0  0  0
   31.4538  -22.0051   37.9156 O   0  0  0  0  0  0  0  0  0  0  0  0
   31.9063  -22.9544   35.6682 O   0  0  0  0  0  0  0  0  0  0  0  0
   30.4790  -20.6544   35.8062 C   0  0  0  0  0  0  0  0  0  0  0  0
   29.1392  -20.9627   36.3760 C   0  0  0  0  0  0  0  0  0  0  0  0
   28.5772  -22.1390   35.5615 C   0  0  0  0  0  0  0  0  0  0  0  0
   28.2697  -23.2823   36.4873 C   0  0  0  0  0  0  0  0  0  0  0  0
   27.8153  -23.7561   38.8160 C   0  0  0  0  0  0  0  0  0  0  0  0
   27.3247  -22.9882   37.5950 C   0  0  0  0  0  0  0  0  0  0  0  0
   36.6200  -18.1400   36.5617 C   0  0  0  0  0  0  0  0  0  0  0  0
   36.4239  -16.9843   36.3181 O   0  0  0  0  0  0  0  0  0  0  0  0
   37.9176  -18.7193   36.9004 C   0  0  0  0  0  0  0  0  0  0  0  0
   38.8845  -18.9624   35.8100 C   0  0  0  0  0  0  0  0  0  0  0  0
   38.4892  -19.0922   34.4858 N   0  0  0  0  0  0  0  0  0  0  0  0
   38.7779  -19.9586   33.4471 C   0  0  0  0  0  0  0  0  0  0  0  0
   39.4539  -18.5867   33.4884 C   0  0  0  0  0  0  0  0  0  0  0  0
   40.9025  -18.5990   33.8695 C   0  0  0  0  0  0  0  0  0  0  0  0
 16 17  1  0  0  0
 17 15  1  0  0  0
 15 14  1  0  0  0
 14 13  1  0  0  0
 13 12  1  0  0  0
 12  9  1  0  0  0
  9 10  2  0  0  0
  9 11  2  0  0  0
  9  1  1  0  0  0
  1  2  2  0  0  0
  2  3  1  0  0  0
  3  4  2  0  0  0
  4 18  1  0  0  0
 18 19  2  0  0  0
 18 20  1  0  0  0
 20 21  1  0  0  0
 21 22  1  0  0  0
 22 23  1  0  0  0
 23 24  1  0  0  0
 24 25  1  0  0  0
  4  5  1  0  0  0
  5  6  1  0  0  0
  5  7  2  0  0  0
  7  8  1  0  0  0
  7  1  1  0  0  0
 24 22  1  0  0  0
M  END
> <minimizedAffinity>
-4.63212

> <CNNscore>
0.2726635039

> <CNNaffinity>
4.7741093636

> <CNN_VS>
1.3017253876

> <CNNaffinity_variance>
0.5747593045

$$$$
[H]c1c([H])c(S(=O)(=O)C([H])([H])C([H])([H])C([H])([H])C([H])([H])C([H])([H])C([H])([H])[H])c(Cl)c(Cl)c1C(=O)C([H])([H])C([H])([H])N1C([H])([H])C1([H])C([H])([H])[H]


 25 26  0  0  0  0  0  0  0  0999 V2000
   35.0008  -16.7879   36.0354 C   0  0  0  0  0  0  0  0  0  0  0  0
   33.8517  -16.1096   35.6668 C   0  0  0  0  0  0  0  0  0  0  0  0
   33.7089  -14.7722   35.9229 C   0  0  0  0  0  0  0  0  0  0  0  0
   34.6851  -14.0508   36.5445 C   0  0  0  0  0  0  0  0  0  0  0  0
   35.8561  -14.7170   36.9298 C   0  0  0  0  0  0  0  0  0  0  0  0
   37.1203  -13.7928   37.7400 Cl  0  0  0  0  0  0  0  0  0  0  0  0
   35.9846  -16.0623   36.6694 C   0  0  0  0  0  0  0  0  0  0  0  0
   37.4398  -16.8929   37.1625 Cl  0  0  0  0  0  0  0  0  0  0  0  0
   35.1905  -18.4768   35.6197 S   0  0  0  0  0  0  0  0  0  0  0  0
   36.4678  -18.5691   34.7825 O   0  0  0  0  0  0  0  0  0  0  0  0
   34.0263  -19.0010   34.8795 O   0  0  0  0  0  0  0  0  0  0  0  0
   35.4611  -19.3319   37.1551 C   0  0  0  0  0  0  0  0  0  0  0  0
   35.5687  -20.8062   36.9834 C   0  0  0  0  0  0  0  0  0  0  0  0
   35.2726  -21.4296   38.3571 C   0  0  0  0  0  0  0  0  0  0  0  0
   36.3314  -21.0031   39.3347 C   0  0  0  0  0  0  0  0  0  0  0  0
   34.8009  -20.3186   41.0790 C   0  0  0  0  0  0  0  0  0  0  0  0
   36.0080  -21.1959   40.7715 C   0  0  0  0  0  0  0  0  0  0  0  0
   34.6095  -12.5747   36.7148 C   0  0  0  0  0  0  0  0  0  0  0  0
   35.2864  -11.8533   36.0403 O   0  0  0  0  0  0  0  0  0  0  0  0
   33.6750  -12.1294   37.7455 C   0  0  0  0  0  0  0  0  0  0  0  0
   32.2717  -12.5851   37.6657 C   0  0  0  0  0  0  0  0  0  0  0  0
   31.2647  -11.7904   37.1356 N   0  0  0  0  0  0  0  0  0  0  0  0
   30.6738  -10.5860   37.4719 C   0  0  0  0  0  0  0  0  0  0  0  0
   29.9577  -11.8937   37.8154 C   0  0  0  0  0  0  0  0  0  0  0  0
   29.9681  -12.2663   39.2661 C   0  0  0  0  0  0  0  0  0  0  0  0
 16 17  1  0  0  0
 17 15  1  0  0  0
 15 14  1  0  0  0
 14 13  1  0  0  0
 13 12  1  0  0  0
 12  9  1  0  0  0
  9 10  2  0  0  0
  9 11  2  0  0  0
  9  1  1  0  0  0
  1  2  2  0  0  0
  2  3  1  0  0  0
  3  4  2  0  0  0
  4 18  1  0  0  0
 18 19  2  0  0  0
 18 20  1  0  0  0
 20 21  1  0  0  0
 21 22  1  0  0  0
 22 23  1  0  0  0
 23 24  1  0  0  0
 24 25  1  0  0  0
  4  5  1  0  0  0
  5  6  1  0  0  0
  5  7  2  0  0  0
  7  8  1  0  0  0
  7  1  1  0  0  0
 24 22  1  0  0  0
M  END
> <minimizedAffinity>
-5.92457

> <CNNscore>
0.2255211622

> <CNNaffinity>
5.6958012581

> <CNN_VS>
1.2845237255

> <CNNaffinity_variance>
0.1235605478

$$$$
[H]c1c([H])c(S(=O)(=O)C([H])([H])C([H])([H])C([H])([H])C([H])([H])C([H])([H])C([H])([H])[H])c(Cl)c(Cl)c1C(=O)C([H])([H])C([H])([H])N1C([H])([H])C1([H])C([H])([H])[H]


 25 26  0  0  0  0  0  0  0  0999 V2000
   35.4256  -15.9260   36.8100 C   0  0  0  0  0  0  0  0  0  0  0  0
   36.3054  -16.5252   37.6950 C   0  0  0  0  0  0  0  0  0  0  0  0
   36.4494  -17.8863   37.7343 C   0  0  0  0  0  0  0  0  0  0  0  0
   35.7415  -18.7083   36.9079 C   0  0  0  0  0  0  0  0  0  0  0  0
   34.8423  -18.1245   36.0057 C   0  0  0  0  0  0  0  0  0  0  0  0
   33.9184  -19.1809   34.9384 Cl  0  0  0  0  0  0  0  0  0  0  0  0
   34.7050  -16.7553   35.9797 C   0  0  0  0  0  0  0  0  0  0  0  0
   33.5739  -16.0311   34.8631 Cl  0  0  0  0  0  0  0  0  0  0  0  0
   35.3250  -14.1815   36.7235 S   0  0  0  0  0  0  0  0  0  0  0  0
   35.6923  -13.8037   35.2871 O   0  0  0  0  0  0  0  0  0  0  0  0
   36.2204  -13.5244   37.6955 O   0  0  0  0  0  0  0  0  0  0  0  0
   33.6148  -13.7754   36.9922 C   0  0  0  0  0  0  0  0  0  0  0  0
   33.4160  -12.8397   38.1323 C   0  0  0  0  0  0  0  0  0  0  0  0
   32.4275  -11.7658   37.6499 C   0  0  0  0  0  0  0  0  0  0  0  0
   33.0242  -10.4048   37.8743 C   0  0  0  0  0  0  0  0  0  0  0  0
   34.1451   -8.6400   36.6567 C   0  0  0  0  0  0  0  0  0  0  0  0
   34.2514  -10.0946   37.0970 C   0  0  0  0  0  0  0  0  0  0  0  0
   35.9760  -20.1759   36.8397 C   0  0  0  0  0  0  0  0  0  0  0  0
   35.1903  -20.9366   37.3272 O   0  0  0  0  0  0  0  0  0  0  0  0
   37.2079  -20.5630   36.1566 C   0  0  0  0  0  0  0  0  0  0  0  0
   38.1996  -19.5122   35.8475 C   0  0  0  0  0  0  0  0  0  0  0  0
   39.0537  -19.5986   34.7567 N   0  0  0  0  0  0  0  0  0  0  0  0
   39.9085  -18.7336   34.0981 C   0  0  0  0  0  0  0  0  0  0  0  0
   38.5304  -19.0248   33.5006 C   0  0  0  0  0  0  0  0  0  0  0  0
   37.5343  -17.9123   33.6187 C   0  0  0  0  0  0  0  0  0  0  0  0
 16 17  1  0  0  0
 17 15  1  0  0  0
 15 14  1  0  0  0
 14 13  1  0  0  0
 13 12  1  0  0  0
 12  9  1  0  0  0
  9 10  2  0  0  0
  9 11  2  0  0  0
  9  1  1  0  0  0
  1  2  2  0  0  0
  2  3  1  0  0  0
  3  4  2  0  0  0
  4 18  1  0  0  0
 18 19  2  0  0  0
 18 20  1  0  0  0
 20 21  1  0  0  0
 21 22  1  0  0  0
 22 23  1  0  0  0
 23 24  1  0  0  0
 24 25  1  0  0  0
  4  5  1  0  0  0
  5  6  1  0  0  0
  5  7  2  0  0  0
  7  8  1  0  0  0
  7  1  1  0  0  0
 24 22  1  0  0  0
M  END
> <minimizedAffinity>
-4.84757

> <CNNscore>
0.2175121903

> <CNNaffinity>
5.1836919785

> <CNN_VS>
1.1275161505

> <CNNaffinity_variance>
0.5246782303

$$$$
[H]c1c([H])c(S(=O)(=O)C([H])([H])C([H])([H])C([H])([H])C([H])([H])C([H])([H])C([H])([H])[H])c(Cl)c(Cl)c1C(=O)C([H])([H])C([H])([H])N1C([H])([H])C1([H])C([H])([H])[H]


 25 26  0  0  0  0  0  0  0  0999 V2000
   35.0109  -15.3552   36.6124 C   0  0  0  0  0  0  0  0  0  0  0  0
   36.2394  -15.3105   37.2491 C   0  0  0  0  0  0  0  0  0  0  0  0
   37.1026  -16.3717   37.1926 C   0  0  0  0  0  0  0  0  0  0  0  0
   36.7968  -17.5117   36.5094 C   0  0  0  0  0  0  0  0  0  0  0  0
   35.5574  -17.5812   35.8597 C   0  0  0  0  0  0  0  0  0  0  0  0
   35.1517  -19.0543   34.9796 Cl  0  0  0  0  0  0  0  0  0  0  0  0
   34.6979  -16.5084   35.9279 C   0  0  0  0  0  0  0  0  0  0  0  0
   33.1481  -16.6029   35.1280 Cl  0  0  0  0  0  0  0  0  0  0  0  0
   33.9650  -13.9529   36.6309 S   0  0  0  0  0  0  0  0  0  0  0  0
   32.9380  -14.2012   37.7375 O   0  0  0  0  0  0  0  0  0  0  0  0
   33.3061  -13.7339   35.3285 O   0  0  0  0  0  0  0  0  0  0  0  0
   34.9909  -12.5827   37.1125 C   0  0  0  0  0  0  0  0  0  0  0  0
   34.4672  -11.2739   36.6357 C   0  0  0  0  0  0  0  0  0  0  0  0
   33.5950  -10.7119   37.7701 C   0  0  0  0  0  0  0  0  0  0  0  0
   32.1489  -10.7846   37.3673 C   0  0  0  0  0  0  0  0  0  0  0  0
   32.3294   -8.3922   37.0557 C   0  0  0  0  0  0  0  0  0  0  0  0
   31.3822   -9.5157   37.4578 C   0  0  0  0  0  0  0  0  0  0  0  0
   37.7686  -18.6228   36.3231 C   0  0  0  0  0  0  0  0  0  0  0  0
   37.9003  -19.4586   37.1702 O   0  0  0  0  0  0  0  0  0  0  0  0
   38.5088  -18.5777   35.0645 C   0  0  0  0  0  0  0  0  0  0  0  0
   39.7839  -19.3184   34.9724 C   0  0  0  0  0  0  0  0  0  0  0  0
   39.8724  -20.5677   34.3740 N   0  0  0  0  0  0  0  0  0  0  0  0
   39.2945  -21.8072   34.5804 C   0  0  0  0  0  0  0  0  0  0  0  0
   40.7150  -21.5489   35.0869 C   0  0  0  0  0  0  0  0  0  0  0  0
   40.8455  -21.3894   36.5705 C   0  0  0  0  0  0  0  0  0  0  0  0
 16 17  1  0  0  0
 17 15  1  0  0  0
 15 14  1  0  0  0
 14 13  1  0  0  0
 13 12  1  0  0  0
 12  9  1  0  0  0
  9 10  2  0  0  0
  9 11  2  0  0  0
  9  1  1  0  0  0
  1  2  2  0  0  0
  2  3  1  0  0  0
  3  4  2  0  0  0
  4 18  1  0  0  0
 18 19  2  0  0  0
 18 20  1  0  0  0
 20 21  1  0  0  0
 21 22  1  0  0  0
 22 23  1  0  0  0
 23 24  1  0  0  0
 24 25  1  0  0  0
  4  5  1  0  0  0
  5  6  1  0  0  0
  5  7  2  0  0  0
  7  8  1  0  0  0
  7  1  1  0  0  0
 24 22  1  0  0  0
M  END
> <minimizedAffinity>
-4.99943

> <CNNscore>
0.2139477283

> <CNNaffinity>
5.1870870590

> <CNN_VS>
1.1097655296

> <CNNaffinity_variance>
0.1971789747

$$$$
[H]OC([H])([H])C([H])([H])N1C([H])([H])C([H])([H])N(c2c(Cl)c([H])c3nc(SC(C([H])([H])[H])(C([H])([H])[H])C([H])([H])[H])n([H])c3c2[H])[C@]([H])(C([H])([H])[H])C1([H])[H]


 27 29  0  0  0  0  0  0  0  0999 V2000
   36.1107  -18.7302   35.1810 C   0  0  0  0  0  0  0  0  0  0  0  0
   35.1715  -19.7291   34.8709 C   0  0  0  0  0  0  0  0  0  0  0  0
   33.8253  -19.5683   35.0936 C   0  0  0  0  0  0  0  0  0  0  0  0
   32.7822  -20.3887   34.8704 N   0  0  0  0  0  0  0  0  0  0  0  0
   31.6875  -19.7211   35.2759 C   0  0  0  0  0  0  0  0  0  0  0  0
   32.0387  -18.5117   35.7417 N   0  0  0  0  0  0  0  0  0  0  0  0
   33.3673  -18.3666   35.6494 C   0  0  0  0  0  0  0  0  0  0  0  0
   34.2757  -17.3761   35.9595 C   0  0  0  0  0  0  0  0  0  0  0  0
   35.6363  -17.5557   35.7279 C   0  0  0  0  0  0  0  0  0  0  0  0
   36.7061  -16.2425   36.1827 Cl  0  0  0  0  0  0  0  0  0  0  0  0
   32.8557  -21.3474   34.4606 H   0  0  0  0  0  0  0  0  0  0  0  0
   38.3136  -19.8191   37.0741 C   0  0  0  0  0  0  0  0  0  0  0  0
   38.4248  -19.7184   35.6149 C   0  0  0  0  0  0  0  0  0  0  0  0
   39.7851  -19.0564   35.3592 C   0  0  0  0  0  0  0  0  0  0  0  0
   40.2448  -19.4752   34.0688 N   0  0  0  0  0  0  0  0  0  0  0  0
   39.1742  -19.3488   33.1530 C   0  0  0  0  0  0  0  0  0  0  0  0
   38.0569  -18.4157   33.6900 C   0  0  0  0  0  0  0  0  0  0  0  0
   37.4622  -18.9539   34.8937 N   0  0  0  0  0  0  0  0  0  0  0  0
   41.4510  -18.7772   33.7722 C   0  0  0  0  0  0  0  0  0  0  0  0
   42.1686  -18.1728   34.9290 C   0  0  0  0  0  0  0  0  0  0  0  0
   42.4777  -16.8410   34.5878 O   0  0  0  0  0  0  0  0  0  0  0  0
   42.0140  -16.5487   33.7728 H   0  0  0  0  0  0  0  0  0  0  0  0
   30.0331  -20.3794   35.1908 S   0  0  0  0  0  0  0  0  0  0  0  0
   30.0253  -21.9396   36.1328 C   0  0  0  0  0  0  0  0  0  0  0  0
   28.6284  -22.1420   36.6628 C   0  0  0  0  0  0  0  0  0  0  0  0
   30.3171  -23.0826   35.1801 C   0  0  0  0  0  0  0  0  0  0  0  0
   31.0600  -21.8278   37.2105 C   0  0  0  0  0  0  0  0  0  0  0  0
 12 13  1  0  0  0
 13 14  1  0  0  0
 14 15  1  0  0  0
 15 19  1  0  0  0
 19 20  1  0  0  0
 20 21  1  0  0  0
 15 16  1  0  0  0
 16 17  1  0  0  0
 17 18  1  0  0  0
 18  1  1  0  0  0
  1  2  2  0  0  0
  2  3  1  0  0  0
  3  4  1  0  0  0
  4  5  1  0  0  0
  5 23  1  0  0  0
 23 24  1  0  0  0
 24 25  1  0  0  0
 24 26  1  0  0  0
 24 27  1  0  0  0
  5  6  2  0  0  0
  6  7  1  0  0  0
  7  8  1  0  0  0
  8  9  2  0  0  0
  9 10  1  0  0  0
 18 13  1  0  0  0
  9  1  1  0  0  0
  7  3  2  0  0  0
 21 22  1  0  0  0
  4 11  1  0  0  0
M  END
> <minimizedAffinity>
-5.57339

> <CNNscore>
0.6442739367

> <CNNaffinity>
5.5523195267

> <CNN_VS>
3.5772147179

> <CNNaffinity_variance>
0.2656301260

$$$$
[H]OC([H])([H])C([H])([H])N1C([H])([H])C([H])([H])N(c2c(Cl)c([H])c3nc(SC(C([H])([H])[H])(C([H])([H])[H])C([H])([H])[H])n([H])c3c2[H])[C@]([H])(C([H])([H])[H])C1([H])[H]


 27 29  0  0  0  0  0  0  0  0999 V2000
   34.5475  -13.9150   36.6137 C   0  0  0  0  0  0  0  0  0  0  0  0
   33.6608  -14.7490   35.9107 C   0  0  0  0  0  0  0  0  0  0  0  0
   33.9884  -16.0336   35.5497 C   0  0  0  0  0  0  0  0  0  0  0  0
   33.2939  -16.9760   34.8861 N   0  0  0  0  0  0  0  0  0  0  0  0
   34.0988  -18.0507   34.8108 C   0  0  0  0  0  0  0  0  0  0  0  0
   35.2692  -17.7856   35.4133 N   0  0  0  0  0  0  0  0  0  0  0  0
   35.2509  -16.5348   35.8929 C   0  0  0  0  0  0  0  0  0  0  0  0
   36.1328  -15.7295   36.5828 C   0  0  0  0  0  0  0  0  0  0  0  0
   35.7850  -14.4301   36.9403 C   0  0  0  0  0  0  0  0  0  0  0  0
   36.9907  -13.4843   37.7932 Cl  0  0  0  0  0  0  0  0  0  0  0  0
   32.3227  -16.8527   34.5198 H   0  0  0  0  0  0  0  0  0  0  0  0
   32.3990  -13.1217   38.7059 C   0  0  0  0  0  0  0  0  0  0  0  0
   33.3853  -12.2095   38.1172 C   0  0  0  0  0  0  0  0  0  0  0  0
   32.5838  -10.9755   37.6826 C   0  0  0  0  0  0  0  0  0  0  0  0
   33.4668   -9.8477   37.6961 N   0  0  0  0  0  0  0  0  0  0  0  0
   34.6693  -10.2169   37.0493 C   0  0  0  0  0  0  0  0  0  0  0  0
   34.4919  -11.4837   36.1713 C   0  0  0  0  0  0  0  0  0  0  0  0
   34.1295  -12.6294   36.9765 N   0  0  0  0  0  0  0  0  0  0  0  0
   32.7635   -8.7191   37.1844 C   0  0  0  0  0  0  0  0  0  0  0  0
   33.4868   -7.8847   36.1849 C   0  0  0  0  0  0  0  0  0  0  0  0
   32.7237   -7.8846   35.0002 O   0  0  0  0  0  0  0  0  0  0  0  0
   31.8274   -8.2629   35.1353 H   0  0  0  0  0  0  0  0  0  0  0  0
   33.6422  -19.5815   34.0197 S   0  0  0  0  0  0  0  0  0  0  0  0
   32.3724  -20.3690   35.0634 C   0  0  0  0  0  0  0  0  0  0  0  0
   31.0651  -19.6684   34.7927 C   0  0  0  0  0  0  0  0  0  0  0  0
   32.2111  -21.8116   34.6251 C   0  0  0  0  0  0  0  0  0  0  0  0
   32.8212  -20.2611   36.4887 C   0  0  0  0  0  0  0  0  0  0  0  0
 12 13  1  0  0  0
 13 14  1  0  0  0
 14 15  1  0  0  0
 15 19  1  0  0  0
 19 20  1  0  0  0
 20 21  1  0  0  0
 15 16  1  0  0  0
 16 17  1  0  0  0
 17 18  1  0  0  0
 18  1  1  0  0  0
  1  2  2  0  0  0
  2  3  1  0  0  0
  3  4  1  0  0  0
  4  5  1  0  0  0
  5 23  1  0  0  0
 23 24  1  0  0  0
 24 25  1  0  0  0
 24 26  1  0  0  0
 24 27  1  0  0  0
  5  6  2  0  0  0
  6  7  1  0  0  0
  7  8  1  0  0  0
  8  9  2  0  0  0
  9 10  1  0  0  0
 18 13  1  0  0  0
  9  1  1  0  0  0
  7  3  2  0  0  0
 21 22  1  0  0  0
  4 11  1  0  0  0
M  END
> <minimizedAffinity>
-7.04258

> <CNNscore>
0.5830467343

> <CNNaffinity>
6.8382048607

> <CNN_VS>
3.9869930744

> <CNNaffinity_variance>
0.0648749471

$$$$
[H]OC([H])([H])C([H])([H])N1C([H])([H])C([H])([H])N(c2c(Cl)c([H])c3nc(SC(C([H])([H])[H])(C([H])([H])[H])C([H])([H])[H])n([H])c3c2[H])[C@]([H])(C([H])([H])[H])C1([H])[H]


 27 29  0  0  0  0  0  0  0  0999 V2000
   35.7486  -18.6064   35.2171 C   0  0  0  0  0  0  0  0  0  0  0  0
   34.8279  -19.6090   34.8664 C   0  0  0  0  0  0  0  0  0  0  0  0
   33.4715  -19.4470   35.0138 C   0  0  0  0  0  0  0  0  0  0  0  0
   32.4423  -20.2703   34.7425 N   0  0  0  0  0  0  0  0  0  0  0  0
   31.3270  -19.5995   35.0811 C   0  0  0  0  0  0  0  0  0  0  0  0
   31.6521  -18.3852   35.5532 N   0  0  0  0  0  0  0  0  0  0  0  0
   32.9837  -18.2401   35.5318 C   0  0  0  0  0  0  0  0  0  0  0  0
   33.8737  -17.2459   35.8809 C   0  0  0  0  0  0  0  0  0  0  0  0
   35.2449  -17.4268   35.7255 C   0  0  0  0  0  0  0  0  0  0  0  0
   36.2882  -16.1083   36.2246 Cl  0  0  0  0  0  0  0  0  0  0  0  0
   32.5381  -21.2331   34.3470 H   0  0  0  0  0  0  0  0  0  0  0  0
   37.5043  -17.6344   32.8516 C   0  0  0  0  0  0  0  0  0  0  0  0
   38.0122  -18.1710   34.1188 C   0  0  0  0  0  0  0  0  0  0  0  0
   39.0715  -19.2075   33.7218 C   0  0  0  0  0  0  0  0  0  0  0  0
   40.0162  -19.3069   34.7939 N   0  0  0  0  0  0  0  0  0  0  0  0
   39.3000  -19.4063   36.0096 C   0  0  0  0  0  0  0  0  0  0  0  0
   37.8235  -19.8251   35.7819 C   0  0  0  0  0  0  0  0  0  0  0  0
   37.1137  -18.8320   35.0059 N   0  0  0  0  0  0  0  0  0  0  0  0
   40.9386  -20.3483   34.4860 C   0  0  0  0  0  0  0  0  0  0  0  0
   40.8940  -21.5532   35.3604 C   0  0  0  0  0  0  0  0  0  0  0  0
   40.1584  -22.5442   34.6803 O   0  0  0  0  0  0  0  0  0  0  0  0
   39.9967  -22.3079   33.7407 H   0  0  0  0  0  0  0  0  0  0  0  0
   29.6797  -20.2599   34.9128 S   0  0  0  0  0  0  0  0  0  0  0  0
   29.4790  -21.5395   36.1950 C   0  0  0  0  0  0  0  0  0  0  0  0
   28.3449  -21.1095   37.0905 C   0  0  0  0  0  0  0  0  0  0  0  0
   29.0606  -22.8344   35.5261 C   0  0  0  0  0  0  0  0  0  0  0  0
   30.7864  -21.6749   36.9140 C   0  0  0  0  0  0  0  0  0  0  0  0
 12 13  1  0  0  0
 13 14  1  0  0  0
 14 15  1  0  0  0
 15 19  1  0  0  0
 19 20  1  0  0  0
 20 21  1  0  0  0
 15 16  1  0  0  0
 16 17  1  0  0  0
 17 18  1  0  0  0
 18  1  1  0  0  0
  1  2  2  0  0  0
  2  3  1  0  0  0
  3  4  1  0  0  0
  4  5  1  0  0  0
  5 23  1  0  0  0
 23 24  1  0  0  0
 24 25  1  0  0  0
 24 26  1  0  0  0
 24 27  1  0  0  0
  5  6  2  0  0  0
  6  7  1  0  0  0
  7  8  1  0  0  0
  8  9  2  0  0  0
  9 10  1  0  0  0
 18 13  1  0  0  0
  9  1  1  0  0  0
  7  3  2  0  0  0
 21 22  1  0  0  0
  4 11  1  0  0  0
M  END
> <minimizedAffinity>
-4.64863

> <CNNscore>
0.5699900389

> <CNNaffinity>
5.5202779770

> <CNN_VS>
3.1465034485

> <CNNaffinity_variance>
0.1617143303

$$$$
[H]OC([H])([H])C([H])([H])N1C([H])([H])C([H])([H])N(c2c(Cl)c([H])c3nc(SC(C([H])([H])[H])(C([H])([H])[H])C([H])([H])[H])n([H])c3c2[H])[C@]([H])(C([H])([H])[H])C1([H])[H]


 27 29  0  0  0  0  0  0  0  0999 V2000
   34.7075  -17.0827   36.1007 C   0  0  0  0  0  0  0  0  0  0  0  0
   33.8772  -15.9637   35.9155 C   0  0  0  0  0  0  0  0  0  0  0  0
   34.2460  -14.7002   36.3097 C   0  0  0  0  0  0  0  0  0  0  0  0
   33.6067  -13.5192   36.2239 N   0  0  0  0  0  0  0  0  0  0  0  0
   34.4320  -12.6065   36.7664 C   0  0  0  0  0  0  0  0  0  0  0  0
   35.5608  -13.2036   37.1817 N   0  0  0  0  0  0  0  0  0  0  0  0
   35.4942  -14.5155   36.9186 C   0  0  0  0  0  0  0  0  0  0  0  0
   36.3211  -15.6031   37.1078 C   0  0  0  0  0  0  0  0  0  0  0  0
   35.9317  -16.8765   36.7029 C   0  0  0  0  0  0  0  0  0  0  0  0
   37.0486  -18.1923   37.0143 Cl  0  0  0  0  0  0  0  0  0  0  0  0
   32.6567  -13.3850   35.8092 H   0  0  0  0  0  0  0  0  0  0  0  0
   35.7298  -18.6729   33.6413 C   0  0  0  0  0  0  0  0  0  0  0  0
   34.9042  -19.2228   34.7219 C   0  0  0  0  0  0  0  0  0  0  0  0
   33.7749  -19.9862   34.0177 C   0  0  0  0  0  0  0  0  0  0  0  0
   33.3266  -21.0234   34.8980 N   0  0  0  0  0  0  0  0  0  0  0  0
   33.1551  -20.4684   36.1877 C   0  0  0  0  0  0  0  0  0  0  0  0
   33.0553  -18.9206   36.1461 C   0  0  0  0  0  0  0  0  0  0  0  0
   34.2771  -18.3329   35.6418 N   0  0  0  0  0  0  0  0  0  0  0  0
   32.2023  -21.6647   34.3023 C   0  0  0  0  0  0  0  0  0  0  0  0
   31.5252  -22.7096   35.1197 C   0  0  0  0  0  0  0  0  0  0  0  0
   31.9647  -23.9645   34.6529 O   0  0  0  0  0  0  0  0  0  0  0  0
   32.7291  -23.8867   34.0410 H   0  0  0  0  0  0  0  0  0  0  0  0
   34.0474  -10.8707   36.8961 S   0  0  0  0  0  0  0  0  0  0  0  0
   32.3859  -10.7411   37.6340 C   0  0  0  0  0  0  0  0  0  0  0  0
   31.4496  -11.5683   36.7901 C   0  0  0  0  0  0  0  0  0  0  0  0
   32.4192  -11.3647   39.0157 C   0  0  0  0  0  0  0  0  0  0  0  0
   32.0188   -9.2893   37.6810 C   0  0  0  0  0  0  0  0  0  0  0  0
 12 13  1  0  0  0
 13 14  1  0  0  0
 14 15  1  0  0  0
 15 19  1  0  0  0
 19 20  1  0  0  0
 20 21  1  0  0  0
 15 16  1  0  0  0
 16 17  1  0  0  0
 17 18  1  0  0  0
 18  1  1  0  0  0
  1  2  2  0  0  0
  2  3  1  0  0  0
  3  4  1  0  0  0
  4  5  1  0  0  0
  5 23  1  0  0  0
 23 24  1  0  0  0
 24 25  1  0  0  0
 24 26  1  0  0  0
 24 27  1  0  0  0
  5  6  2  0  0  0
  6  7  1  0  0  0
  7  8  1  0  0  0
  8  9  2  0  0  0
  9 10  1  0  0  0
 18 13  1  0  0  0
  9  1  1  0  0  0
  7  3  2  0  0  0
 21 22  1  0  0  0
  4 11  1  0  0  0
M  END
> <minimizedAffinity>
-4.97316

> <CNNscore>
0.4624176025

> <CNNaffinity>
5.8553133011

> <CNN_VS>
2.7075998783

> <CNNaffinity_variance>
0.0371751003

$$$$
[H]OC([H])([H])C([H])([H])N1C([H])([H])C([H])([H])N(c2c(Cl)c([H])c3nc(SC(C([H])([H])[H])(C([H])([H])[H])C([H])([H])[H])n([H])c3c2[H])[C@]([H])(C([H])([H])[H])C1([H])[H]


 27 29  0  0  0  0  0  0  0  0999 V2000
   34.8789  -14.7646   36.8351 C   0  0  0  0  0  0  0  0  0  0  0  0
   33.5016  -14.4847   36.8087 C   0  0  0  0  0  0  0  0  0  0  0  0
   33.0023  -13.2244   37.0323 C   0  0  0  0  0  0  0  0  0  0  0  0
   31.7403  -12.7576   37.0506 N   0  0  0  0  0  0  0  0  0  0  0  0
   31.8312  -11.4432   37.3202 C   0  0  0  0  0  0  0  0  0  0  0  0
   33.1203  -11.0970   37.4670 N   0  0  0  0  0  0  0  0  0  0  0  0
   33.8945  -12.1770   37.2963 C   0  0  0  0  0  0  0  0  0  0  0  0
   35.2491  -12.4346   37.3258 C   0  0  0  0  0  0  0  0  0  0  0  0
   35.7382  -13.7176   37.0977 C   0  0  0  0  0  0  0  0  0  0  0  0
   37.4758  -13.9392   37.1837 Cl  0  0  0  0  0  0  0  0  0  0  0  0
   30.8879  -13.3388   36.8827 H   0  0  0  0  0  0  0  0  0  0  0  0
   33.5845  -16.8596   34.9489 C   0  0  0  0  0  0  0  0  0  0  0  0
   34.9402  -16.9420   35.5028 C   0  0  0  0  0  0  0  0  0  0  0  0
   35.0650  -18.3690   36.0523 C   0  0  0  0  0  0  0  0  0  0  0  0
   36.4498  -18.7341   36.0239 N   0  0  0  0  0  0  0  0  0  0  0  0
   37.2027  -17.6639   36.5608 C   0  0  0  0  0  0  0  0  0  0  0  0
   36.3224  -16.6926   37.3910 C   0  0  0  0  0  0  0  0  0  0  0  0
   35.3140  -16.0670   36.5639 N   0  0  0  0  0  0  0  0  0  0  0  0
   36.5911  -20.0120   36.6380 C   0  0  0  0  0  0  0  0  0  0  0  0
   35.3547  -20.6119   37.2122 C   0  0  0  0  0  0  0  0  0  0  0  0
   35.1600  -21.8608   36.5892 O   0  0  0  0  0  0  0  0  0  0  0  0
   35.9436  -22.1424   36.0681 H   0  0  0  0  0  0  0  0  0  0  0  0
   30.4248  -10.3560   37.4542 S   0  0  0  0  0  0  0  0  0  0  0  0
   29.2558  -11.1292   38.6193 C   0  0  0  0  0  0  0  0  0  0  0  0
   28.7685  -10.0515   39.5543 C   0  0  0  0  0  0  0  0  0  0  0  0
   28.0545  -11.6289   37.8406 C   0  0  0  0  0  0  0  0  0  0  0  0
   29.9756  -12.2420   39.3179 C   0  0  0  0  0  0  0  0  0  0  0  0
 12 13  1  0  0  0
 13 14  1  0  0  0
 14 15  1  0  0  0
 15 19  1  0  0  0
 19 20  1  0  0  0
 20 21  1  0  0  0
 15 16  1  0  0  0
 16 17  1  0  0  0
 17 18  1  0  0  0
 18  1  1  0  0  0
  1  2  2  0  0  0
  2  3  1  0  0  0
  3  4  1  0  0  0
  4  5  1  0  0  0
  5 23  1  0  0  0
 23 24  1  0  0  0
 24 25  1  0  0  0
 24 26  1  0  0  0
 24 27  1  0  0  0
  5  6  2  0  0  0
  6  7  1  0  0  0
  7  8  1  0  0  0
  8  9  2  0  0  0
  9 10  1  0  0  0
 18 13  1  0  0  0
  9  1  1  0  0  0
  7  3  2  0  0  0
 21 22  1  0  0  0
  4 11  1  0  0  0
M  END
> <minimizedAffinity>
-7.14514

> <CNNscore>
0.4386947155

> <CNNaffinity>
6.2624177933

> <CNN_VS>
2.7472896576

> <CNNaffinity_variance>
0.0351388119

$$$$
[H]OC([H])([H])C([H])([H])N1C([H])([H])C([H])([H])N(c2c(Cl)c([H])c3nc(SC(C([H])([H])[H])(C([H])([H])[H])C([H])([H])[H])n([H])c3c2[H])[C@]([H])(C([H])([H])[H])C1([H])[H]


 27 29  0  0  0  0  0  0  0  0999 V2000
   33.9966  -19.4829   35.7402 C   0  0  0  0  0  0  0  0  0  0  0  0
   33.4996  -20.7965   35.7968 C   0  0  0  0  0  0  0  0  0  0  0  0
   32.1588  -21.0810   35.7008 C   0  0  0  0  0  0  0  0  0  0  0  0
   31.4927  -22.2499   35.7316 N   0  0  0  0  0  0  0  0  0  0  0  0
   30.1908  -21.9426   35.5935 C   0  0  0  0  0  0  0  0  0  0  0  0
   30.0470  -20.6124   35.4791 N   0  0  0  0  0  0  0  0  0  0  0  0
   31.2503  -20.0267   35.5401 C   0  0  0  0  0  0  0  0  0  0  0  0
   31.7214  -18.7317   35.4827 C   0  0  0  0  0  0  0  0  0  0  0  0
   33.0831  -18.4610   35.5822 C   0  0  0  0  0  0  0  0  0  0  0  0
   33.5713  -16.7776   35.5225 Cl  0  0  0  0  0  0  0  0  0  0  0  0
   31.9406  -23.1877   35.8428 H   0  0  0  0  0  0  0  0  0  0  0  0
   35.8904  -18.4434   33.5141 C   0  0  0  0  0  0  0  0  0  0  0  0
   36.2263  -18.5307   34.9393 C   0  0  0  0  0  0  0  0  0  0  0  0
   37.6019  -19.2084   34.9883 C   0  0  0  0  0  0  0  0  0  0  0  0
   38.2620  -18.7827   36.1861 N   0  0  0  0  0  0  0  0  0  0  0  0
   37.3457  -18.8852   37.2589 C   0  0  0  0  0  0  0  0  0  0  0  0
   36.1474  -19.8084   36.9139 C   0  0  0  0  0  0  0  0  0  0  0  0
   35.3788  -19.2746   35.8109 N   0  0  0  0  0  0  0  0  0  0  0  0
   39.4913  -19.4939   36.2999 C   0  0  0  0  0  0  0  0  0  0  0  0
   39.5044  -20.6486   37.2406 C   0  0  0  0  0  0  0  0  0  0  0  0
   40.7893  -21.2248   37.1875 O   0  0  0  0  0  0  0  0  0  0  0  0
   41.4309  -20.6587   36.7050 H   0  0  0  0  0  0  0  0  0  0  0  0
   28.8808  -23.1514   35.5705 S   0  0  0  0  0  0  0  0  0  0  0  0
   28.5025  -23.5683   37.3040 C   0  0  0  0  0  0  0  0  0  0  0  0
   29.0611  -22.4658   38.1674 C   0  0  0  0  0  0  0  0  0  0  0  0
   26.9971  -23.5657   37.4857 C   0  0  0  0  0  0  0  0  0  0  0  0
   29.1014  -24.9110   37.5922 C   0  0  0  0  0  0  0  0  0  0  0  0
 12 13  1  0  0  0
 13 14  1  0  0  0
 14 15  1  0  0  0
 15 19  1  0  0  0
 19 20  1  0  0  0
 20 21  1  0  0  0
 15 16  1  0  0  0
 16 17  1  0  0  0
 17 18  1  0  0  0
 18  1  1  0  0  0
  1  2  2  0  0  0
  2  3  1  0  0  0
  3  4  1  0  0  0
  4  5  1  0  0  0
  5 23  1  0  0  0
 23 24  1  0  0  0
 24 25  1  0  0  0
 24 26  1  0  0  0
 24 27  1  0  0  0
  5  6  2  0  0  0
  6  7  1  0  0  0
  7  8  1  0  0  0
  8  9  2  0  0  0
  9 10  1  0  0  0
 18 13  1  0  0  0
  9  1  1  0  0  0
  7  3  2  0  0  0
 21 22  1  0  0  0
  4 11  1  0  0  0
M  END
> <minimizedAffinity>
-4.08206

> <CNNscore>
0.4217002988

> <CNNaffinity>
5.0002961159

> <CNN_VS>
2.1086263657

> <CNNaffinity_variance>
0.2039853781

$$$$
[H]OC([H])([H])C([H])([H])N1C([H])([H])C([H])([H])N(c2c(Cl)c([H])c3nc(SC(C([H])([H])[H])(C([H])([H])[H])C([H])([H])[H])n([H])c3c2[H])[C@]([H])(C([H])([H])[H])C1([H])[H]


 27 29  0  0  0  0  0  0  0  0999 V2000
   32.4039  -20.7023   36.1632 C   0  0  0  0  0  0  0  0  0  0  0  0
   33.7067  -20.4699   36.6371 C   0  0  0  0  0  0  0  0  0  0  0  0
   34.3332  -19.2546   36.5021 C   0  0  0  0  0  0  0  0  0  0  0  0
   35.5550  -18.8364   36.8805 N   0  0  0  0  0  0  0  0  0  0  0  0
   35.6462  -17.5508   36.4966 C   0  0  0  0  0  0  0  0  0  0  0  0
   34.5076  -17.1747   35.8922 N   0  0  0  0  0  0  0  0  0  0  0  0
   33.6526  -18.2058   35.8701 C   0  0  0  0  0  0  0  0  0  0  0  0
   32.3736  -18.4170   35.3992 C   0  0  0  0  0  0  0  0  0  0  0  0
   31.7537  -19.6548   35.5438 C   0  0  0  0  0  0  0  0  0  0  0  0
   30.1364  -19.8221   34.8864 Cl  0  0  0  0  0  0  0  0  0  0  0  0
   36.2610  -19.4290   37.3734 H   0  0  0  0  0  0  0  0  0  0  0  0
   31.8182  -22.9057   34.0597 C   0  0  0  0  0  0  0  0  0  0  0  0
   31.8051  -23.0980   35.5138 C   0  0  0  0  0  0  0  0  0  0  0  0
   30.4987  -23.8462   35.8096 C   0  0  0  0  0  0  0  0  0  0  0  0
   30.6846  -24.6017   37.0123 N   0  0  0  0  0  0  0  0  0  0  0  0
   31.2932  -23.7626   37.9747 C   0  0  0  0  0  0  0  0  0  0  0  0
   31.1470  -22.2610   37.6124 C   0  0  0  0  0  0  0  0  0  0  0  0
   31.8189  -21.9572   36.3680 N   0  0  0  0  0  0  0  0  0  0  0  0
   29.4431  -25.2088   37.3589 C   0  0  0  0  0  0  0  0  0  0  0  0
   28.2134  -24.4300   37.0432 C   0  0  0  0  0  0  0  0  0  0  0  0
   27.3317  -25.2886   36.3567 O   0  0  0  0  0  0  0  0  0  0  0  0
   27.6224  -26.2262   36.3929 H   0  0  0  0  0  0  0  0  0  0  0  0
   37.0831  -16.5314   36.7686 S   0  0  0  0  0  0  0  0  0  0  0  0
   36.4994  -14.8134   36.9414 C   0  0  0  0  0  0  0  0  0  0  0  0
   35.2998  -14.8321   37.8543 C   0  0  0  0  0  0  0  0  0  0  0  0
   37.5790  -14.0017   37.6305 C   0  0  0  0  0  0  0  0  0  0  0  0
   36.1949  -14.2942   35.5694 C   0  0  0  0  0  0  0  0  0  0  0  0
 12 13  1  0  0  0
 13 14  1  0  0  0
 14 15  1  0  0  0
 15 19  1  0  0  0
 19 20  1  0  0  0
 20 21  1  0  0  0
 15 16  1  0  0  0
 16 17  1  0  0  0
 17 18  1  0  0  0
 18  1  1  0  0  0
  1  2  2  0  0  0
  2  3  1  0  0  0
  3  4  1  0  0  0
  4  5  1  0  0  0
  5 23  1  0  0  0
 23 24  1  0  0  0
 24 25  1  0  0  0
 24 26  1  0  0  0
 24 27  1  0  0  0
  5  6  2  0  0  0
  6  7  1  0  0  0
  7  8  1  0  0  0
  8  9  2  0  0  0
  9 10  1  0  0  0
 18 13  1  0  0  0
  9  1  1  0  0  0
  7  3  2  0  0  0
 21 22  1  0  0  0
  4 11  1  0  0  0
M  END
> <minimizedAffinity>
-4.56404

> <CNNscore>
0.3984266222

> <CNNaffinity>
4.8444056511

> <CNN_VS>
1.9301401377

> <CNNaffinity_variance>
0.3070708513

$$$$
[H]OC([H])([H])C([H])([H])N1C([H])([H])C([H])([H])N(c2c(Cl)c([H])c3nc(SC(C([H])([H])[H])(C([H])([H])[H])C([H])([H])[H])n([H])c3c2[H])[C@]([H])(C([H])([H])[H])C1([H])[H]


 27 29  0  0  0  0  0  0  0  0999 V2000
   36.1615  -17.7597   35.4508 C   0  0  0  0  0  0  0  0  0  0  0  0
   36.5822  -16.4954   35.8984 C   0  0  0  0  0  0  0  0  0  0  0  0
   35.7022  -15.4657   36.1287 C   0  0  0  0  0  0  0  0  0  0  0  0
   35.9003  -14.2035   36.5510 N   0  0  0  0  0  0  0  0  0  0  0  0
   34.6848  -13.6300   36.5999 C   0  0  0  0  0  0  0  0  0  0  0  0
   33.7491  -14.5136   36.2169 N   0  0  0  0  0  0  0  0  0  0  0  0
   34.3347  -15.6791   35.9111 C   0  0  0  0  0  0  0  0  0  0  0  0
   33.9052  -16.9139   35.4718 C   0  0  0  0  0  0  0  0  0  0  0  0
   34.8103  -17.9462   35.2429 C   0  0  0  0  0  0  0  0  0  0  0  0
   34.1598  -19.4674   34.6613 Cl  0  0  0  0  0  0  0  0  0  0  0  0
   36.8329  -13.7928   36.7836 H   0  0  0  0  0  0  0  0  0  0  0  0
   37.1629  -19.8352   37.5273 C   0  0  0  0  0  0  0  0  0  0  0  0
   37.3817  -19.9129   36.0790 C   0  0  0  0  0  0  0  0  0  0  0  0
   38.8755  -20.2213   35.9131 C   0  0  0  0  0  0  0  0  0  0  0  0
   39.0489  -20.9119   34.6702 N   0  0  0  0  0  0  0  0  0  0  0  0
   38.3183  -20.2235   33.6736 C   0  0  0  0  0  0  0  0  0  0  0  0
   37.9695  -18.7745   34.1050 C   0  0  0  0  0  0  0  0  0  0  0  0
   37.1138  -18.7697   35.2712 N   0  0  0  0  0  0  0  0  0  0  0  0
   40.4440  -21.1013   34.4512 C   0  0  0  0  0  0  0  0  0  0  0  0
   41.0218  -20.4405   33.2480 C   0  0  0  0  0  0  0  0  0  0  0  0
   41.3737  -21.4543   32.3347 O   0  0  0  0  0  0  0  0  0  0  0  0
   41.0105  -22.3297   32.5930 H   0  0  0  0  0  0  0  0  0  0  0  0
   34.4004  -11.9440   37.1042 S   0  0  0  0  0  0  0  0  0  0  0  0
   32.6908  -11.8500   37.7289 C   0  0  0  0  0  0  0  0  0  0  0  0
   32.3693  -10.3939   37.9517 C   0  0  0  0  0  0  0  0  0  0  0  0
   31.7527  -12.3603   36.6524 C   0  0  0  0  0  0  0  0  0  0  0  0
   32.6147  -12.6739   38.9778 C   0  0  0  0  0  0  0  0  0  0  0  0
 12 13  1  0  0  0
 13 14  1  0  0  0
 14 15  1  0  0  0
 15 19  1  0  0  0
 19 20  1  0  0  0
 20 21  1  0  0  0
 15 16  1  0  0  0
 16 17  1  0  0  0
 17 18  1  0  0  0
 18  1  1  0  0  0
  1  2  2  0  0  0
  2  3  1  0  0  0
  3  4  1  0  0  0
  4  5  1  0  0  0
  5 23  1  0  0  0
 23 24  1  0  0  0
 24 25  1  0  0  0
 24 26  1  0  0  0
 24 27  1  0  0  0
  5  6  2  0  0  0
  6  7  1  0  0  0
  7  8  1  0  0  0
  8  9  2  0  0  0
  9 10  1  0  0  0
 18 13  1  0  0  0
  9  1  1  0  0  0
  7  3  2  0  0  0
 21 22  1  0  0  0
  4 11  1  0  0  0
M  END
> <minimizedAffinity>
-6.38331

> <CNNscore>
0.3971163630

> <CNNaffinity>
5.5735573769

> <CNN_VS>
2.2133507729

> <CNNaffinity_variance>
0.1838246286

$$$$
[H]OC([H])([H])C([H])([H])N1C([H])([H])C([H])([H])N(c2c(Cl)c([H])c3nc(SC(C([H])([H])[H])(C([H])([H])[H])C([H])([H])[H])n([H])c3c2[H])[C@]([H])(C([H])([H])[H])C1([H])[H]


 27 29  0  0  0  0  0  0  0  0999 V2000
   35.3056  -20.1757   36.8221 C   0  0  0  0  0  0  0  0  0  0  0  0
   35.5508  -20.5161   38.1637 C   0  0  0  0  0  0  0  0  0  0  0  0
   34.6141  -21.1474   38.9459 C   0  0  0  0  0  0  0  0  0  0  0  0
   34.6525  -21.5514   40.2290 N   0  0  0  0  0  0  0  0  0  0  0  0
   33.4570  -22.1134   40.4804 C   0  0  0  0  0  0  0  0  0  0  0  0
   32.6894  -22.0616   39.3799 N   0  0  0  0  0  0  0  0  0  0  0  0
   33.3680  -21.4658   38.3903 C   0  0  0  0  0  0  0  0  0  0  0  0
   33.1112  -21.1388   37.0752 C   0  0  0  0  0  0  0  0  0  0  0  0
   34.0713  -20.4987   36.2969 C   0  0  0  0  0  0  0  0  0  0  0  0
   33.6314  -20.1060   34.6452 Cl  0  0  0  0  0  0  0  0  0  0  0  0
   35.4718  -21.4311   40.8668 H   0  0  0  0  0  0  0  0  0  0  0  0
   35.4702  -17.2273   35.8720 C   0  0  0  0  0  0  0  0  0  0  0  0
   36.5873  -18.1779   35.8810 C   0  0  0  0  0  0  0  0  0  0  0  0
   37.2340  -18.0529   34.4953 C   0  0  0  0  0  0  0  0  0  0  0  0
   38.6129  -18.4213   34.6162 N   0  0  0  0  0  0  0  0  0  0  0  0
   38.6890  -19.6188   35.3651 C   0  0  0  0  0  0  0  0  0  0  0  0
   37.3279  -20.3620   35.4131 C   0  0  0  0  0  0  0  0  0  0  0  0
   36.3215  -19.5641   36.0785 N   0  0  0  0  0  0  0  0  0  0  0  0
   39.1950  -18.4199   33.3157 C   0  0  0  0  0  0  0  0  0  0  0  0
   40.6829  -18.4475   33.2554 C   0  0  0  0  0  0  0  0  0  0  0  0
   41.0571  -19.5968   32.5309 O   0  0  0  0  0  0  0  0  0  0  0  0
   40.2924  -20.0176   32.0804 H   0  0  0  0  0  0  0  0  0  0  0  0
   32.9983  -22.8124   42.0549 S   0  0  0  0  0  0  0  0  0  0  0  0
   34.1060  -24.2274   42.3590 C   0  0  0  0  0  0  0  0  0  0  0  0
   34.3150  -24.9304   41.0417 C   0  0  0  0  0  0  0  0  0  0  0  0
   35.4545  -23.6994   42.8083 C   0  0  0  0  0  0  0  0  0  0  0  0
   33.4657  -25.0934   43.4004 C   0  0  0  0  0  0  0  0  0  0  0  0
 12 13  1  0  0  0
 13 14  1  0  0  0
 14 15  1  0  0  0
 15 19  1  0  0  0
 19 20  1  0  0  0
 20 21  1  0  0  0
 15 16  1  0  0  0
 16 17  1  0  0  0
 17 18  1  0  0  0
 18  1  1  0  0  0
  1  2  2  0  0  0
  2  3  1  0  0  0
  3  4  1  0  0  0
  4  5  1  0  0  0
  5 23  1  0  0  0
 23 24  1  0  0  0
 24 25  1  0  0  0
 24 26  1  0  0  0
 24 27  1  0  0  0
  5  6  2  0  0  0
  6  7  1  0  0  0
  7  8  1  0  0  0
  8  9  2  0  0  0
  9 10  1  0  0  0
 18 13  1  0  0  0
  9  1  1  0  0  0
  7  3  2  0  0  0
 21 22  1  0  0  0
  4 11  1  0  0  0
M  END
> <minimizedAffinity>
-3.69608

> <CNNscore>
0.3906164467

> <CNNaffinity>
4.9673209190

> <CNN_VS>
1.9403172731

> <CNNaffinity_variance>
0.0829892755

$$$$
[H]c1nc(N([H])S(=O)(=O)c2c([H])c(Cl)c(N(C([H])([H])[H])[C@]3([H])C([H])([H])N(C([H])([H])c4c([H])c([H])c(Cl)c([H])c4[H])C([H])([H])C3([H])[H])c([H])c2F)c([H])s1


 33 36  0  0  0  0  0  0  0  0999 V2000
   36.2558  -17.6012   36.4023 C   0  0  0  0  0  0  0  0  0  0  0  0
   36.8466  -16.5896   37.1287 C   0  0  0  0  0  0  0  0  0  0  0  0
   36.2834  -15.3366   37.2129 C   0  0  0  0  0  0  0  0  0  0  0  0
   36.8799  -14.3421   37.9369 F   0  0  0  0  0  0  0  0  0  0  0  0
   35.0838  -15.0243   36.5668 C   0  0  0  0  0  0  0  0  0  0  0  0
   34.5009  -16.0406   35.8444 C   0  0  0  0  0  0  0  0  0  0  0  0
   35.0720  -17.2930   35.7650 C   0  0  0  0  0  0  0  0  0  0  0  0
   34.2901  -18.5732   34.8242 Cl  0  0  0  0  0  0  0  0  0  0  0  0
   34.3960  -13.4230   36.7263 S   0  0  0  0  0  0  0  0  0  0  0  0
   34.1155  -13.2321   38.2057 O   0  0  0  0  0  0  0  0  0  0  0  0
   33.0890  -13.3074   36.0182 O   0  0  0  0  0  0  0  0  0  0  0  0
   35.4594  -12.1740   36.2550 N   0  0  0  0  0  0  0  0  0  0  0  0
   36.4194  -12.4516   35.9611 H   0  0  0  0  0  0  0  0  0  0  0  0
   35.0749  -10.7676   36.2522 C   0  0  0  0  0  0  0  0  0  0  0  0
   34.1105  -10.2958   37.1136 C   0  0  0  0  0  0  0  0  0  0  0  0
   34.0583   -8.6417   36.6973 S   0  0  0  0  0  0  0  0  0  0  0  0
   35.2461   -8.6455   35.4721 C   0  0  0  0  0  0  0  0  0  0  0  0
   35.6194   -9.9122   35.4470 N   0  0  0  0  0  0  0  0  0  0  0  0
   36.9167  -19.7395   37.4734 C   0  0  0  0  0  0  0  0  0  0  0  0
   36.8093  -18.9001   36.2955 N   0  0  0  0  0  0  0  0  0  0  0  0
   37.2712  -19.4167   35.0493 C   0  0  0  0  0  0  0  0  0  0  0  0
   38.1452  -18.4512   34.2753 C   0  0  0  0  0  0  0  0  0  0  0  0
   38.8077  -19.4081   33.2900 C   0  0  0  0  0  0  0  0  0  0  0  0
   39.0515  -20.5993   34.0391 N   0  0  0  0  0  0  0  0  0  0  0  0
   38.2546  -20.5823   35.2274 C   0  0  0  0  0  0  0  0  0  0  0  0
   40.4581  -20.7549   34.2588 C   0  0  0  0  0  0  0  0  0  0  0  0
   40.7704  -20.4120   35.6675 C   0  0  0  0  0  0  0  0  0  0  0  0
   40.6865  -21.4004   36.6537 C   0  0  0  0  0  0  0  0  0  0  0  0
   40.9693  -21.1474   37.9781 C   0  0  0  0  0  0  0  0  0  0  0  0
   41.3502  -19.8853   38.3700 C   0  0  0  0  0  0  0  0  0  0  0  0
   41.7042  -19.5882   40.0571 Cl  0  0  0  0  0  0  0  0  0  0  0  0
   41.4440  -18.8904   37.4337 C   0  0  0  0  0  0  0  0  0  0  0  0
   41.1540  -19.1673   36.1018 C   0  0  0  0  0  0  0  0  0  0  0  0
 19 20  1  0  0  0
 20  1  1  0  0  0
  1  2  2  0  0  0
  2  3  1  0  0  0
  3  4  1  0  0  0
  3  5  2  0  0  0
  5  9  1  0  0  0
  9 10  2  0  0  0
  9 11  2  0  0  0
  9 12  1  0  0  0
 12 14  1  0  0  0
 14 15  2  0  0  0
 15 16  1  0  0  0
 16 17  1  0  0  0
 17 18  2  0  0  0
  5  6  1  0  0  0
  6  7  2  0  0  0
  7  8  1  0  0  0
 20 21  1  0  0  0
 21 22  1  0  0  0
 22 23  1  0  0  0
 23 24  1  0  0  0
 24 26  1  0  0  0
 26 27  1  0  0  0
 27 28  2  0  0  0
 28 29  1  0  0  0
 29 30  2  0  0  0
 30 31  1  0  0  0
 30 32  1  0  0  0
 32 33  2  0  0  0
 24 25  1  0  0  0
  7  1  1  0  0  0
 25 21  1  0  0  0
 18 14  1  0  0  0
 33 27  1  0  0  0
 12 13  1  0  0  0
M  END
> <minimizedAffinity>
-7.19802

> <CNNscore>
0.6614035964

> <CNNaffinity>
6.7954940796

> <CNN_VS>
4.4945640564

> <CNNaffinity_variance>
0.0769026056

$$$$
[H]c1nc(N([H])S(=O)(=O)c2c([H])c(Cl)c(N(C([H])([H])[H])[C@]3([H])C([H])([H])N(C([H])([H])c4c([H])c([H])c(Cl)c([H])c4[H])C([H])([H])C3([H])[H])c([H])c2F)c([H])s1


 33 36  0  0  0  0  0  0  0  0999 V2000
   35.4041  -17.5018   36.1641 C   0  0  0  0  0  0  0  0  0  0  0  0
   36.0520  -16.6389   37.0218 C   0  0  0  0  0  0  0  0  0  0  0  0
   35.6090  -15.3513   37.2222 C   0  0  0  0  0  0  0  0  0  0  0  0
   36.2610  -14.5056   38.0758 F   0  0  0  0  0  0  0  0  0  0  0  0
   34.4798  -14.8515   36.5670 C   0  0  0  0  0  0  0  0  0  0  0  0
   33.8392  -15.7203   35.7131 C   0  0  0  0  0  0  0  0  0  0  0  0
   34.2898  -17.0086   35.5179 C   0  0  0  0  0  0  0  0  0  0  0  0
   33.4371  -18.0949   34.4096 Cl  0  0  0  0  0  0  0  0  0  0  0  0
   33.9427  -13.2148   36.8760 S   0  0  0  0  0  0  0  0  0  0  0  0
   33.7186  -13.1223   38.3743 O   0  0  0  0  0  0  0  0  0  0  0  0
   32.6336  -12.9277   36.2227 O   0  0  0  0  0  0  0  0  0  0  0  0
   35.1014  -12.0289   36.4708 N   0  0  0  0  0  0  0  0  0  0  0  0
   36.0638  -12.3599   36.2485 H   0  0  0  0  0  0  0  0  0  0  0  0
   34.7930  -10.6045   36.4282 C   0  0  0  0  0  0  0  0  0  0  0  0
   35.5013   -9.7511   35.6128 C   0  0  0  0  0  0  0  0  0  0  0  0
   34.7499   -8.2557   35.9462 S   0  0  0  0  0  0  0  0  0  0  0  0
   33.5975   -8.7931   37.0844 C   0  0  0  0  0  0  0  0  0  0  0  0
   33.8492  -10.0881   37.1485 N   0  0  0  0  0  0  0  0  0  0  0  0
   35.3878  -19.8966   36.8130 C   0  0  0  0  0  0  0  0  0  0  0  0
   35.8343  -18.8314   35.9358 N   0  0  0  0  0  0  0  0  0  0  0  0
   36.7047  -19.1613   34.8556 C   0  0  0  0  0  0  0  0  0  0  0  0
   37.3302  -17.9548   34.1861 C   0  0  0  0  0  0  0  0  0  0  0  0
   38.4815  -18.6197   33.4393 C   0  0  0  0  0  0  0  0  0  0  0  0
   38.9594  -19.6335   34.3244 N   0  0  0  0  0  0  0  0  0  0  0  0
   37.9709  -19.8911   35.3264 C   0  0  0  0  0  0  0  0  0  0  0  0
   40.2488  -19.2683   34.8295 C   0  0  0  0  0  0  0  0  0  0  0  0
   41.1710  -20.4207   34.6853 C   0  0  0  0  0  0  0  0  0  0  0  0
   42.0101  -20.7709   35.7482 C   0  0  0  0  0  0  0  0  0  0  0  0
   42.8843  -21.8335   35.6792 C   0  0  0  0  0  0  0  0  0  0  0  0
   42.9531  -22.5930   34.5347 C   0  0  0  0  0  0  0  0  0  0  0  0
   44.0707  -23.9371   34.4707 Cl  0  0  0  0  0  0  0  0  0  0  0  0
   42.1474  -22.2817   33.4720 C   0  0  0  0  0  0  0  0  0  0  0  0
   41.2718  -21.2047   33.5626 C   0  0  0  0  0  0  0  0  0  0  0  0
 19 20  1  0  0  0
 20  1  1  0  0  0
  1  2  2  0  0  0
  2  3  1  0  0  0
  3  4  1  0  0  0
  3  5  2  0  0  0
  5  9  1  0  0  0
  9 10  2  0  0  0
  9 11  2  0  0  0
  9 12  1  0  0  0
 12 14  1  0  0  0
 14 15  2  0  0  0
 15 16  1  0  0  0
 16 17  1  0  0  0
 17 18  2  0  0  0
  5  6  1  0  0  0
  6  7  2  0  0  0
  7  8  1  0  0  0
 20 21  1  0  0  0
 21 22  1  0  0  0
 22 23  1  0  0  0
 23 24  1  0  0  0
 24 26  1  0  0  0
 26 27  1  0  0  0
 27 28  2  0  0  0
 28 29  1  0  0  0
 29 30  2  0  0  0
 30 31  1  0  0  0
 30 32  1  0  0  0
 32 33  2  0  0  0
 24 25  1  0  0  0
  7  1  1  0  0  0
 25 21  1  0  0  0
 18 14  1  0  0  0
 33 27  1  0  0  0
 12 13  1  0  0  0
M  END
> <minimizedAffinity>
-6.82249

> <CNNscore>
0.6219400167

> <CNNaffinity>
6.7343993187

> <CNN_VS>
4.1883926392

> <CNNaffinity_variance>
0.1990249008

$$$$
[H]c1nc(N([H])S(=O)(=O)c2c([H])c(Cl)c(N(C([H])([H])[H])[C@]3([H])C([H])([H])N(C([H])([H])c4c([H])c([H])c(Cl)c([H])c4[H])C([H])([H])C3([H])[H])c([H])c2F)c([H])s1


 33 36  0  0  0  0  0  0  0  0999 V2000
   35.3296  -17.3322   36.1440 C   0  0  0  0  0  0  0  0  0  0  0  0
   36.0072  -16.4807   36.9900 C   0  0  0  0  0  0  0  0  0  0  0  0
   35.5540  -15.2070   37.2481 C   0  0  0  0  0  0  0  0  0  0  0  0
   36.2358  -14.3725   38.0894 F   0  0  0  0  0  0  0  0  0  0  0  0
   34.3838  -14.7105   36.6665 C   0  0  0  0  0  0  0  0  0  0  0  0
   33.7137  -15.5679   35.8238 C   0  0  0  0  0  0  0  0  0  0  0  0
   34.1748  -16.8423   35.5703 C   0  0  0  0  0  0  0  0  0  0  0  0
   33.2832  -17.9142   34.4788 Cl  0  0  0  0  0  0  0  0  0  0  0  0
   33.8367  -13.0925   37.0475 S   0  0  0  0  0  0  0  0  0  0  0  0
   34.8035  -12.1487   36.3560 O   0  0  0  0  0  0  0  0  0  0  0  0
   33.9219  -12.8074   38.5085 O   0  0  0  0  0  0  0  0  0  0  0  0
   32.2790  -12.7398   36.4455 N   0  0  0  0  0  0  0  0  0  0  0  0
   32.0944  -12.9600   35.4443 H   0  0  0  0  0  0  0  0  0  0  0  0
   31.2273  -12.1547   37.2685 C   0  0  0  0  0  0  0  0  0  0  0  0
   30.8101  -12.7703   38.4269 C   0  0  0  0  0  0  0  0  0  0  0  0
   29.6040  -11.6934   38.9724 S   0  0  0  0  0  0  0  0  0  0  0  0
   29.6982  -10.5416   37.7168 C   0  0  0  0  0  0  0  0  0  0  0  0
   30.6476  -11.0425   36.9472 N   0  0  0  0  0  0  0  0  0  0  0  0
   35.3801  -19.7445   36.7227 C   0  0  0  0  0  0  0  0  0  0  0  0
   35.7691  -18.6474   35.8574 N   0  0  0  0  0  0  0  0  0  0  0  0
   36.5937  -18.9318   34.7294 C   0  0  0  0  0  0  0  0  0  0  0  0
   37.2587  -17.7069   34.1358 C   0  0  0  0  0  0  0  0  0  0  0  0
   38.3564  -18.3638   33.3059 C   0  0  0  0  0  0  0  0  0  0  0  0
   38.8081  -19.4645   34.0958 N   0  0  0  0  0  0  0  0  0  0  0  0
   37.8352  -19.7536   35.1045 C   0  0  0  0  0  0  0  0  0  0  0  0
   40.1265  -19.1995   34.5884 C   0  0  0  0  0  0  0  0  0  0  0  0
   40.9200  -20.4519   34.5499 C   0  0  0  0  0  0  0  0  0  0  0  0
   41.2198  -21.0418   33.3176 C   0  0  0  0  0  0  0  0  0  0  0  0
   41.9573  -22.2009   33.2141 C   0  0  0  0  0  0  0  0  0  0  0  0
   42.4273  -22.8194   34.3491 C   0  0  0  0  0  0  0  0  0  0  0  0
   43.3614  -24.2900   34.1927 Cl  0  0  0  0  0  0  0  0  0  0  0  0
   42.1546  -22.2724   35.5746 C   0  0  0  0  0  0  0  0  0  0  0  0
   41.4082  -21.1015   35.6566 C   0  0  0  0  0  0  0  0  0  0  0  0
 19 20  1  0  0  0
 20  1  1  0  0  0
  1  2  2  0  0  0
  2  3  1  0  0  0
  3  4  1  0  0  0
  3  5  2  0  0  0
  5  9  1  0  0  0
  9 10  2  0  0  0
  9 11  2  0  0  0
  9 12  1  0  0  0
 12 14  1  0  0  0
 14 15  2  0  0  0
 15 16  1  0  0  0
 16 17  1  0  0  0
 17 18  2  0  0  0
  5  6  1  0  0  0
  6  7  2  0  0  0
  7  8  1  0  0  0
 20 21  1  0  0  0
 21 22  1  0  0  0
 22 23  1  0  0  0
 23 24  1  0  0  0
 24 26  1  0  0  0
 26 27  1  0  0  0
 27 28  2  0  0  0
 28 29  1  0  0  0
 29 30  2  0  0  0
 30 31  1  0  0  0
 30 32  1  0  0  0
 32 33  2  0  0  0
 24 25  1  0  0  0
  7  1  1  0  0  0
 25 21  1  0  0  0
 18 14  1  0  0  0
 33 27  1  0  0  0
 12 13  1  0  0  0
M  END
> <minimizedAffinity>
-7.51959

> <CNNscore>
0.5493277907

> <CNNaffinity>
6.4971895218

> <CNN_VS>
3.5690867901

> <CNNaffinity_variance>
0.1387297809

$$$$
[H]c1nc(N([H])S(=O)(=O)c2c([H])c(Cl)c(N(C([H])([H])[H])[C@]3([H])C([H])([H])N(C([H])([H])c4c([H])c([H])c(Cl)c([H])c4[H])C([H])([H])C3([H])[H])c([H])c2F)c([H])s1


 33 36  0  0  0  0  0  0  0  0999 V2000
   36.0190  -16.5924   35.8559 C   0  0  0  0  0  0  0  0  0  0  0  0
   36.5682  -15.5635   36.5905 C   0  0  0  0  0  0  0  0  0  0  0  0
   35.8198  -14.4779   36.9851 C   0  0  0  0  0  0  0  0  0  0  0  0
   36.3770  -13.4640   37.7136 F   0  0  0  0  0  0  0  0  0  0  0  0
   34.4647  -14.3620   36.6621 C   0  0  0  0  0  0  0  0  0  0  0  0
   33.9249  -15.3943   35.9290 C   0  0  0  0  0  0  0  0  0  0  0  0
   34.6819  -16.4781   35.5374 C   0  0  0  0  0  0  0  0  0  0  0  0
   33.9492  -17.7853   34.5941 Cl  0  0  0  0  0  0  0  0  0  0  0  0
   33.5510  -12.9735   37.2099 S   0  0  0  0  0  0  0  0  0  0  0  0
   33.2304  -13.2317   38.6708 O   0  0  0  0  0  0  0  0  0  0  0  0
   32.2485  -12.8492   36.4951 O   0  0  0  0  0  0  0  0  0  0  0  0
   34.4276  -11.5105   37.1426 N   0  0  0  0  0  0  0  0  0  0  0  0
   35.4662  -11.5752   37.1905 H   0  0  0  0  0  0  0  0  0  0  0  0
   33.7836  -10.2079   37.0239 C   0  0  0  0  0  0  0  0  0  0  0  0
   34.4195   -9.1581   36.4009 C   0  0  0  0  0  0  0  0  0  0  0  0
   33.2540   -7.9194   36.5405 S   0  0  0  0  0  0  0  0  0  0  0  0
   32.0454   -8.7936   37.3694 C   0  0  0  0  0  0  0  0  0  0  0  0
   32.5980   -9.9866   37.4950 N   0  0  0  0  0  0  0  0  0  0  0  0
   37.0801  -17.8949   34.0300 C   0  0  0  0  0  0  0  0  0  0  0  0
   36.7613  -17.7221   35.4343 N   0  0  0  0  0  0  0  0  0  0  0  0
   37.2120  -18.7093   36.3593 C   0  0  0  0  0  0  0  0  0  0  0  0
   37.0830  -20.1291   35.8468 C   0  0  0  0  0  0  0  0  0  0  0  0
   38.0161  -20.8556   36.8094 C   0  0  0  0  0  0  0  0  0  0  0  0
   39.1096  -19.9595   37.0110 N   0  0  0  0  0  0  0  0  0  0  0  0
   38.7286  -18.6460   36.5900 C   0  0  0  0  0  0  0  0  0  0  0  0
   40.2850  -20.4780   36.3781 C   0  0  0  0  0  0  0  0  0  0  0  0
   41.3706  -20.5848   37.3829 C   0  0  0  0  0  0  0  0  0  0  0  0
   41.4937  -19.6047   38.3732 C   0  0  0  0  0  0  0  0  0  0  0  0
   42.4761  -19.6498   39.3381 C   0  0  0  0  0  0  0  0  0  0  0  0
   43.3805  -20.6860   39.3495 C   0  0  0  0  0  0  0  0  0  0  0  0
   44.6188  -20.7217   40.5844 Cl  0  0  0  0  0  0  0  0  0  0  0  0
   43.2928  -21.6652   38.3961 C   0  0  0  0  0  0  0  0  0  0  0  0
   42.2932  -21.6005   37.4310 C   0  0  0  0  0  0  0  0  0  0  0  0
 19 20  1  0  0  0
 20  1  1  0  0  0
  1  2  2  0  0  0
  2  3  1  0  0  0
  3  4  1  0  0  0
  3  5  2  0  0  0
  5  9  1  0  0  0
  9 10  2  0  0  0
  9 11  2  0  0  0
  9 12  1  0  0  0
 12 14  1  0  0  0
 14 15  2  0  0  0
 15 16  1  0  0  0
 16 17  1  0  0  0
 17 18  2  0  0  0
  5  6  1  0  0  0
  6  7  2  0  0  0
  7  8  1  0  0  0
 20 21  1  0  0  0
 21 22  1  0  0  0
 22 23  1  0  0  0
 23 24  1  0  0  0
 24 26  1  0  0  0
 26 27  1  0  0  0
 27 28  2  0  0  0
 28 29  1  0  0  0
 29 30  2  0  0  0
 30 31  1  0  0  0
 30 32  1  0  0  0
 32 33  2  0  0  0
 24 25  1  0  0  0
  7  1  1  0  0  0
 25 21  1  0  0  0
 18 14  1  0  0  0
 33 27  1  0  0  0
 12 13  1  0  0  0
M  END
> <minimizedAffinity>
-6.90212

> <CNNscore>
0.5286171436

> <CNNaffinity>
6.5600762367

> <CNN_VS>
3.4677686691

> <CNNaffinity_variance>
0.1753976494

$$$$
[H]c1nc(N([H])S(=O)(=O)c2c([H])c(Cl)c(N(C([H])([H])[H])[C@]3([H])C([H])([H])N(C([H])([H])c4c([H])c([H])c(Cl)c([H])c4[H])C([H])([H])C3([H])[H])c([H])c2F)c([H])s1


 33 36  0  0  0  0  0  0  0  0999 V2000
   35.7551  -16.4130   35.9075 C   0  0  0  0  0  0  0  0  0  0  0  0
   36.3668  -15.4111   36.6300 C   0  0  0  0  0  0  0  0  0  0  0  0
   35.6662  -14.3172   37.0847 C   0  0  0  0  0  0  0  0  0  0  0  0
   36.2853  -13.3305   37.8004 F   0  0  0  0  0  0  0  0  0  0  0  0
   34.2987  -14.1648   36.8379 C   0  0  0  0  0  0  0  0  0  0  0  0
   33.6964  -15.1703   36.1163 C   0  0  0  0  0  0  0  0  0  0  0  0
   34.4057  -16.2627   35.6642 C   0  0  0  0  0  0  0  0  0  0  0  0
   33.5931  -17.5345   34.7382 Cl  0  0  0  0  0  0  0  0  0  0  0  0
   33.4485  -12.7674   37.4600 S   0  0  0  0  0  0  0  0  0  0  0  0
   34.3139  -11.5662   37.1256 O   0  0  0  0  0  0  0  0  0  0  0  0
   33.3214  -12.8109   38.9449 O   0  0  0  0  0  0  0  0  0  0  0  0
   31.9305  -12.5090   36.7236 N   0  0  0  0  0  0  0  0  0  0  0  0
   31.7913  -12.9022   35.7691 H   0  0  0  0  0  0  0  0  0  0  0  0
   30.8520  -11.7737   37.3729 C   0  0  0  0  0  0  0  0  0  0  0  0
   30.8331  -10.3973   37.3719 C   0  0  0  0  0  0  0  0  0  0  0  0
   29.4002  -10.0733   38.2404 S   0  0  0  0  0  0  0  0  0  0  0  0
   28.9160  -11.6802   38.5495 C   0  0  0  0  0  0  0  0  0  0  0  0
   29.8764  -12.3789   37.9717 N   0  0  0  0  0  0  0  0  0  0  0  0
   36.9381  -17.5736   34.0609 C   0  0  0  0  0  0  0  0  0  0  0  0
   36.4471  -17.5504   35.4254 N   0  0  0  0  0  0  0  0  0  0  0  0
   36.6801  -18.6899   36.2503 C   0  0  0  0  0  0  0  0  0  0  0  0
   36.6659  -20.0029   35.4945 C   0  0  0  0  0  0  0  0  0  0  0  0
   37.3614  -20.9097   36.5041 C   0  0  0  0  0  0  0  0  0  0  0  0
   38.3843  -20.0999   37.0849 N   0  0  0  0  0  0  0  0  0  0  0  0
   38.1079  -18.7223   36.8138 C   0  0  0  0  0  0  0  0  0  0  0  0
   39.6700  -20.5541   36.6472 C   0  0  0  0  0  0  0  0  0  0  0  0
   40.7050  -20.0632   37.5891 C   0  0  0  0  0  0  0  0  0  0  0  0
   40.6471  -20.4383   38.9354 C   0  0  0  0  0  0  0  0  0  0  0  0
   41.5809  -20.0212   39.8585 C   0  0  0  0  0  0  0  0  0  0  0  0
   42.6172  -19.2061   39.4669 C   0  0  0  0  0  0  0  0  0  0  0  0
   43.7905  -18.6894   40.6569 Cl  0  0  0  0  0  0  0  0  0  0  0  0
   42.7082  -18.8170   38.1571 C   0  0  0  0  0  0  0  0  0  0  0  0
   41.7548  -19.2496   37.2413 C   0  0  0  0  0  0  0  0  0  0  0  0
 19 20  1  0  0  0
 20  1  1  0  0  0
  1  2  2  0  0  0
  2  3  1  0  0  0
  3  4  1  0  0  0
  3  5  2  0  0  0
  5  9  1  0  0  0
  9 10  2  0  0  0
  9 11  2  0  0  0
  9 12  1  0  0  0
 12 14  1  0  0  0
 14 15  2  0  0  0
 15 16  1  0  0  0
 16 17  1  0  0  0
 17 18  2  0  0  0
  5  6  1  0  0  0
  6  7  2  0  0  0
  7  8  1  0  0  0
 20 21  1  0  0  0
 21 22  1  0  0  0
 22 23  1  0  0  0
 23 24  1  0  0  0
 24 26  1  0  0  0
 26 27  1  0  0  0
 27 28  2  0  0  0
 28 29  1  0  0  0
 29 30  2  0  0  0
 30 31  1  0  0  0
 30 32  1  0  0  0
 32 33  2  0  0  0
 24 25  1  0  0  0
  7  1  1  0  0  0
 25 21  1  0  0  0
 18 14  1  0  0  0
 33 27  1  0  0  0
 12 13  1  0  0  0
M  END
> <minimizedAffinity>
-7.90109

> <CNNscore>
0.5051721334

> <CNNaffinity>
6.5549445152

> <CNN_VS>
3.3113753796

> <CNNaffinity_variance>
0.1138973460

$$$$
[H]c1nc(N([H])S(=O)(=O)c2c([H])c(Cl)c(N(C([H])([H])[H])[C@]3([H])C([H])([H])N(C([H])([H])c4c([H])c([H])c(Cl)c([H])c4[H])C([H])([H])C3([H])[H])c([H])c2F)c([H])s1


 33 36  0  0  0  0  0  0  0  0999 V2000
   35.5102  -16.7608   35.7741 C   0  0  0  0  0  0  0  0  0  0  0  0
   36.1599  -15.9017   36.6342 C   0  0  0  0  0  0  0  0  0  0  0  0
   35.5505  -14.7667   37.1187 C   0  0  0  0  0  0  0  0  0  0  0  0
   36.2064  -13.9229   37.9713 F   0  0  0  0  0  0  0  0  0  0  0  0
   34.2419  -14.4260   36.7644 C   0  0  0  0  0  0  0  0  0  0  0  0
   33.6010  -15.2899   35.9057 C   0  0  0  0  0  0  0  0  0  0  0  0
   34.2189  -16.4247   35.4248 C   0  0  0  0  0  0  0  0  0  0  0  0
   33.3594  -17.5101   34.3210 Cl  0  0  0  0  0  0  0  0  0  0  0  0
   33.5036  -12.9849   37.4282 S   0  0  0  0  0  0  0  0  0  0  0  0
   34.4418  -11.8399   37.0931 O   0  0  0  0  0  0  0  0  0  0  0  0
   33.4065  -13.0456   38.9148 O   0  0  0  0  0  0  0  0  0  0  0  0
   31.9911  -12.6106   36.7315 N   0  0  0  0  0  0  0  0  0  0  0  0
   31.7483  -13.0859   35.8369 H   0  0  0  0  0  0  0  0  0  0  0  0
   31.0541  -11.6703   37.3343 C   0  0  0  0  0  0  0  0  0  0  0  0
   29.9405  -12.1158   38.0099 C   0  0  0  0  0  0  0  0  0  0  0  0
   29.2210  -10.6455   38.4924 S   0  0  0  0  0  0  0  0  0  0  0  0
   30.3589   -9.5671   37.8183 C   0  0  0  0  0  0  0  0  0  0  0  0
   31.2287  -10.3895   37.2601 N   0  0  0  0  0  0  0  0  0  0  0  0
   37.0239  -17.8481   34.1361 C   0  0  0  0  0  0  0  0  0  0  0  0
   36.1088  -17.9357   35.2579 N   0  0  0  0  0  0  0  0  0  0  0  0
   35.8368  -19.2204   35.8135 C   0  0  0  0  0  0  0  0  0  0  0  0
   37.0802  -20.0393   36.0936 C   0  0  0  0  0  0  0  0  0  0  0  0
   36.5125  -21.0857   37.0465 C   0  0  0  0  0  0  0  0  0  0  0  0
   35.5768  -20.3762   37.8593 N   0  0  0  0  0  0  0  0  0  0  0  0
   35.2504  -19.1333   37.2298 C   0  0  0  0  0  0  0  0  0  0  0  0
   36.0827  -20.2611   39.1941 C   0  0  0  0  0  0  0  0  0  0  0  0
   35.0425  -20.7154   40.1485 C   0  0  0  0  0  0  0  0  0  0  0  0
   34.2472  -21.8208   39.8288 C   0  0  0  0  0  0  0  0  0  0  0  0
   33.2688  -22.2955   40.6746 C   0  0  0  0  0  0  0  0  0  0  0  0
   33.0467  -21.6775   41.8830 C   0  0  0  0  0  0  0  0  0  0  0  0
   31.7989  -22.2983   42.9402 Cl  0  0  0  0  0  0  0  0  0  0  0  0
   33.8048  -20.5919   42.2322 C   0  0  0  0  0  0  0  0  0  0  0  0
   34.7876  -20.1288   41.3635 C   0  0  0  0  0  0  0  0  0  0  0  0
 19 20  1  0  0  0
 20  1  1  0  0  0
  1  2  2  0  0  0
  2  3  1  0  0  0
  3  4  1  0  0  0
  3  5  2  0  0  0
  5  9  1  0  0  0
  9 10  2  0  0  0
  9 11  2  0  0  0
  9 12  1  0  0  0
 12 14  1  0  0  0
 14 15  2  0  0  0
 15 16  1  0  0  0
 16 17  1  0  0  0
 17 18  2  0  0  0
  5  6  1  0  0  0
  6  7  2  0  0  0
  7  8  1  0  0  0
 20 21  1  0  0  0
 21 22  1  0  0  0
 22 23  1  0  0  0
 23 24  1  0  0  0
 24 26  1  0  0  0
 26 27  1  0  0  0
 27 28  2  0  0  0
 28 29  1  0  0  0
 29 30  2  0  0  0
 30 31  1  0  0  0
 30 32  1  0  0  0
 32 33  2  0  0  0
 24 25  1  0  0  0
  7  1  1  0  0  0
 25 21  1  0  0  0
 18 14  1  0  0  0
 33 27  1  0  0  0
 12 13  1  0  0  0
M  END
> <minimizedAffinity>
-7.25342

> <CNNscore>
0.4790144265

> <CNNaffinity>
6.5198335648

> <CNN_VS>
3.1230943203

> <CNNaffinity_variance>
0.1553774923

$$$$
[H]c1nc(N([H])S(=O)(=O)c2c([H])c(Cl)c(N(C([H])([H])[H])[C@]3([H])C([H])([H])N(C([H])([H])c4c([H])c([H])c(Cl)c([H])c4[H])C([H])([H])C3([H])[H])c([H])c2F)c([H])s1


 33 36  0  0  0  0  0  0  0  0999 V2000
   35.8141  -16.3337   36.0553 C   0  0  0  0  0  0  0  0  0  0  0  0
   36.4077  -15.2993   36.7464 C   0  0  0  0  0  0  0  0  0  0  0  0
   35.6875  -14.2046   37.1674 C   0  0  0  0  0  0  0  0  0  0  0  0
   36.2887  -13.1853   37.8520 F   0  0  0  0  0  0  0  0  0  0  0  0
   34.3175  -14.0845   36.9167 C   0  0  0  0  0  0  0  0  0  0  0  0
   33.7334  -15.1224   36.2267 C   0  0  0  0  0  0  0  0  0  0  0  0
   34.4623  -16.2153   35.8082 C   0  0  0  0  0  0  0  0  0  0  0  0
   33.6727  -17.5294   34.9222 Cl  0  0  0  0  0  0  0  0  0  0  0  0
   33.4422  -12.6841   37.4959 S   0  0  0  0  0  0  0  0  0  0  0  0
   34.2782  -11.4774   37.1100 O   0  0  0  0  0  0  0  0  0  0  0  0
   33.3290  -12.6763   38.9825 O   0  0  0  0  0  0  0  0  0  0  0  0
   31.9127  -12.4855   36.7651 N   0  0  0  0  0  0  0  0  0  0  0  0
   31.7510  -12.9734   35.8590 H   0  0  0  0  0  0  0  0  0  0  0  0
   30.8541  -11.6748   37.3548 C   0  0  0  0  0  0  0  0  0  0  0  0
   31.0215  -10.3219   37.5451 C   0  0  0  0  0  0  0  0  0  0  0  0
   29.5262   -9.8859   38.2424 S   0  0  0  0  0  0  0  0  0  0  0  0
   28.7868  -11.4238   38.2516 C   0  0  0  0  0  0  0  0  0  0  0  0
   29.7234  -12.1888   37.7206 N   0  0  0  0  0  0  0  0  0  0  0  0
   36.9683  -17.5541   34.2292 C   0  0  0  0  0  0  0  0  0  0  0  0
   36.5265  -17.4728   35.6082 N   0  0  0  0  0  0  0  0  0  0  0  0
   36.8277  -18.5580   36.4828 C   0  0  0  0  0  0  0  0  0  0  0  0
   36.6018  -19.9217   35.8627 C   0  0  0  0  0  0  0  0  0  0  0  0
   37.4040  -20.7964   36.8201 C   0  0  0  0  0  0  0  0  0  0  0  0
   38.5601  -20.0237   37.1457 N   0  0  0  0  0  0  0  0  0  0  0  0
   38.3268  -18.6548   36.8005 C   0  0  0  0  0  0  0  0  0  0  0  0
   39.7201  -20.6082   36.5426 C   0  0  0  0  0  0  0  0  0  0  0  0
   39.3551  -21.9230   35.9617 C   0  0  0  0  0  0  0  0  0  0  0  0
   39.3715  -22.0932   34.5734 C   0  0  0  0  0  0  0  0  0  0  0  0
   39.0490  -23.2904   33.9728 C   0  0  0  0  0  0  0  0  0  0  0  0
   38.6949  -24.3724   34.7444 C   0  0  0  0  0  0  0  0  0  0  0  0
   38.2895  -25.8820   33.9591 Cl  0  0  0  0  0  0  0  0  0  0  0  0
   38.6670  -24.2455   36.1076 C   0  0  0  0  0  0  0  0  0  0  0  0
   38.9963  -23.0278   36.6938 C   0  0  0  0  0  0  0  0  0  0  0  0
 19 20  1  0  0  0
 20  1  1  0  0  0
  1  2  2  0  0  0
  2  3  1  0  0  0
  3  4  1  0  0  0
  3  5  2  0  0  0
  5  9  1  0  0  0
  9 10  2  0  0  0
  9 11  2  0  0  0
  9 12  1  0  0  0
 12 14  1  0  0  0
 14 15  2  0  0  0
 15 16  1  0  0  0
 16 17  1  0  0  0
 17 18  2  0  0  0
  5  6  1  0  0  0
  6  7  2  0  0  0
  7  8  1  0  0  0
 20 21  1  0  0  0
 21 22  1  0  0  0
 22 23  1  0  0  0
 23 24  1  0  0  0
 24 26  1  0  0  0
 26 27  1  0  0  0
 27 28  2  0  0  0
 28 29  1  0  0  0
 29 30  2  0  0  0
 30 31  1  0  0  0
 30 32  1  0  0  0
 32 33  2  0  0  0
 24 25  1  0  0  0
  7  1  1  0  0  0
 25 21  1  0  0  0
 18 14  1  0  0  0
 33 27  1  0  0  0
 12 13  1  0  0  0
M  END
> <minimizedAffinity>
-7.17678

> <CNNscore>
0.4620479941

> <CNNaffinity>
6.4094200134

> <CNN_VS>
2.9614596367

> <CNNaffinity_variance>
0.2152782232

$$$$
[H]c1nc(N([H])S(=O)(=O)c2c([H])c(Cl)c(N(C([H])([H])[H])[C@]3([H])C([H])([H])N(C([H])([H])c4c([H])c([H])c(Cl)c([H])c4[H])C([H])([H])C3([H])[H])c([H])c2F)c([H])s1


 33 36  0  0  0  0  0  0  0  0999 V2000
   35.5792  -16.6331   35.8689 C   0  0  0  0  0  0  0  0  0  0  0  0
   36.2146  -15.7399   36.7047 C   0  0  0  0  0  0  0  0  0  0  0  0
   35.5793  -14.6132   37.1752 C   0  0  0  0  0  0  0  0  0  0  0  0
   36.2211  -13.7354   38.0037 F   0  0  0  0  0  0  0  0  0  0  0  0
   34.2576  -14.3158   36.8304 C   0  0  0  0  0  0  0  0  0  0  0  0
   33.6312  -15.2135   35.9959 C   0  0  0  0  0  0  0  0  0  0  0  0
   34.2751  -16.3397   35.5289 C   0  0  0  0  0  0  0  0  0  0  0  0
   33.4335  -17.4695   34.4562 Cl  0  0  0  0  0  0  0  0  0  0  0  0
   33.4869  -12.8834   37.4760 S   0  0  0  0  0  0  0  0  0  0  0  0
   34.4052  -11.7235   37.1366 O   0  0  0  0  0  0  0  0  0  0  0  0
   33.3808  -12.9325   38.9623 O   0  0  0  0  0  0  0  0  0  0  0  0
   31.9724  -12.5448   36.7656 N   0  0  0  0  0  0  0  0  0  0  0  0
   31.7529  -13.0182   35.8640 H   0  0  0  0  0  0  0  0  0  0  0  0
   31.0027  -11.6369   37.3665 C   0  0  0  0  0  0  0  0  0  0  0  0
   29.8945  -12.1196   38.0248 C   0  0  0  0  0  0  0  0  0  0  0  0
   29.1289  -10.6746   38.5128 S   0  0  0  0  0  0  0  0  0  0  0  0
   30.2438   -9.5585   37.8622 C   0  0  0  0  0  0  0  0  0  0  0  0
   31.1424  -10.3511   37.3064 N   0  0  0  0  0  0  0  0  0  0  0  0
   36.8337  -17.7795   34.0610 C   0  0  0  0  0  0  0  0  0  0  0  0
   36.2044  -17.8004   35.3676 N   0  0  0  0  0  0  0  0  0  0  0  0
   36.2356  -19.0133   36.1168 C   0  0  0  0  0  0  0  0  0  0  0  0
   36.1617  -18.8061   37.6157 C   0  0  0  0  0  0  0  0  0  0  0  0
   35.7702  -20.2085   38.0690 C   0  0  0  0  0  0  0  0  0  0  0  0
   34.8557  -20.6756   37.0766 N   0  0  0  0  0  0  0  0  0  0  0  0
   34.9765  -19.8656   35.9032 C   0  0  0  0  0  0  0  0  0  0  0  0
   33.5356  -20.7453   37.6275 C   0  0  0  0  0  0  0  0  0  0  0  0
   32.7108  -21.6572   36.7982 C   0  0  0  0  0  0  0  0  0  0  0  0
   33.1133  -22.9853   36.6234 C   0  0  0  0  0  0  0  0  0  0  0  0
   32.3885  -23.8831   35.8706 C   0  0  0  0  0  0  0  0  0  0  0  0
   31.2234  -23.4834   35.2587 C   0  0  0  0  0  0  0  0  0  0  0  0
   30.3203  -24.6411   34.3080 Cl  0  0  0  0  0  0  0  0  0  0  0  0
   30.7961  -22.1907   35.4062 C   0  0  0  0  0  0  0  0  0  0  0  0
   31.5429  -21.3004   36.1707 C   0  0  0  0  0  0  0  0  0  0  0  0
 19 20  1  0  0  0
 20  1  1  0  0  0
  1  2  2  0  0  0
  2  3  1  0  0  0
  3  4  1  0  0  0
  3  5  2  0  0  0
  5  9  1  0  0  0
  9 10  2  0  0  0
  9 11  2  0  0  0
  9 12  1  0  0  0
 12 14  1  0  0  0
 14 15  2  0  0  0
 15 16  1  0  0  0
 16 17  1  0  0  0
 17 18  2  0  0  0
  5  6  1  0  0  0
  6  7  2  0  0  0
  7  8  1  0  0  0
 20 21  1  0  0  0
 21 22  1  0  0  0
 22 23  1  0  0  0
 23 24  1  0  0  0
 24 26  1  0  0  0
 26 27  1  0  0  0
 27 28  2  0  0  0
 28 29  1  0  0  0
 29 30  2  0  0  0
 30 31  1  0  0  0
 30 32  1  0  0  0
 32 33  2  0  0  0
 24 25  1  0  0  0
  7  1  1  0  0  0
 25 21  1  0  0  0
 18 14  1  0  0  0
 33 27  1  0  0  0
 12 13  1  0  0  0
M  END
> <minimizedAffinity>
-7.75915

> <CNNscore>
0.4613556564

> <CNNaffinity>
6.3860278130

> <CNN_VS>
2.9462299347

> <CNNaffinity_variance>
0.2563309371

$$$$
[H]c1nc(N([H])S(=O)(=O)c2c([H])c(Cl)c(N(C([H])([H])[H])[C@]3([H])C([H])([H])N(C([H])([H])c4c([H])c([H])c(Cl)c([H])c4[H])C([H])([H])C3([H])[H])c([H])c2F)c([H])s1


 33 36  0  0  0  0  0  0  0  0999 V2000
   35.7731  -16.3887   36.1063 C   0  0  0  0  0  0  0  0  0  0  0  0
   36.3875  -15.3319   36.7433 C   0  0  0  0  0  0  0  0  0  0  0  0
   35.6874  -14.2068   37.1155 C   0  0  0  0  0  0  0  0  0  0  0  0
   36.3091  -13.1657   37.7468 F   0  0  0  0  0  0  0  0  0  0  0  0
   34.3179  -14.0770   36.8674 C   0  0  0  0  0  0  0  0  0  0  0  0
   33.7129  -15.1373   36.2315 C   0  0  0  0  0  0  0  0  0  0  0  0
   34.4217  -16.2606   35.8618 C   0  0  0  0  0  0  0  0  0  0  0  0
   33.6057  -17.6028   35.0447 Cl  0  0  0  0  0  0  0  0  0  0  0  0
   33.4686  -12.6366   37.3837 S   0  0  0  0  0  0  0  0  0  0  0  0
   34.2787  -11.4628   36.8644 O   0  0  0  0  0  0  0  0  0  0  0  0
   33.4330  -12.5159   38.8694 O   0  0  0  0  0  0  0  0  0  0  0  0
   31.9023  -12.4938   36.7208 N   0  0  0  0  0  0  0  0  0  0  0  0
   31.7392  -12.9263   35.7873 H   0  0  0  0  0  0  0  0  0  0  0  0
   30.8151  -11.8027   37.4034 C   0  0  0  0  0  0  0  0  0  0  0  0
   30.7014  -10.4321   37.3462 C   0  0  0  0  0  0  0  0  0  0  0  0
   29.3024  -10.1644   38.2861 S   0  0  0  0  0  0  0  0  0  0  0  0
   28.9488  -11.7840   38.6909 C   0  0  0  0  0  0  0  0  0  0  0  0
   29.9200  -12.4432   38.0853 N   0  0  0  0  0  0  0  0  0  0  0  0
   36.7716  -17.7788   34.3100 C   0  0  0  0  0  0  0  0  0  0  0  0
   36.4645  -17.5592   35.7103 N   0  0  0  0  0  0  0  0  0  0  0  0
   36.8744  -18.5429   36.6577 C   0  0  0  0  0  0  0  0  0  0  0  0
   35.8674  -18.7807   37.7643 C   0  0  0  0  0  0  0  0  0  0  0  0
   36.3587  -20.1208   38.3010 C   0  0  0  0  0  0  0  0  0  0  0  0
   36.7684  -20.8536   37.1458 N   0  0  0  0  0  0  0  0  0  0  0  0
   36.9384  -19.9509   36.0486 C   0  0  0  0  0  0  0  0  0  0  0  0
   35.8551  -21.9300   36.9047 C   0  0  0  0  0  0  0  0  0  0  0  0
   35.9284  -22.8908   38.0321 C   0  0  0  0  0  0  0  0  0  0  0  0
   37.1010  -23.6248   38.2388 C   0  0  0  0  0  0  0  0  0  0  0  0
   37.2343  -24.5278   39.2707 C   0  0  0  0  0  0  0  0  0  0  0  0
   36.1908  -24.7327   40.1430 C   0  0  0  0  0  0  0  0  0  0  0  0
   36.3836  -25.8842   41.4455 Cl  0  0  0  0  0  0  0  0  0  0  0  0
   35.0260  -24.0329   39.9738 C   0  0  0  0  0  0  0  0  0  0  0  0
   34.9124  -23.1259   38.9253 C   0  0  0  0  0  0  0  0  0  0  0  0
 19 20  1  0  0  0
 20  1  1  0  0  0
  1  2  2  0  0  0
  2  3  1  0  0  0
  3  4  1  0  0  0
  3  5  2  0  0  0
  5  9  1  0  0  0
  9 10  2  0  0  0
  9 11  2  0  0  0
  9 12  1  0  0  0
 12 14  1  0  0  0
 14 15  2  0  0  0
 15 16  1  0  0  0
 16 17  1  0  0  0
 17 18  2  0  0  0
  5  6  1  0  0  0
  6  7  2  0  0  0
  7  8  1  0  0  0
 20 21  1  0  0  0
 21 22  1  0  0  0
 22 23  1  0  0  0
 23 24  1  0  0  0
 24 26  1  0  0  0
 26 27  1  0  0  0
 27 28  2  0  0  0
 28 29  1  0  0  0
 29 30  2  0  0  0
 30 31  1  0  0  0
 30 32  1  0  0  0
 32 33  2  0  0  0
 24 25  1  0  0  0
  7  1  1  0  0  0
 25 21  1  0  0  0
 18 14  1  0  0  0
 33 27  1  0  0  0
 12 13  1  0  0  0
M  END
> <minimizedAffinity>
-6.74340

> <CNNscore>
0.4457177818

> <CNNaffinity>
6.4834518433

> <CNN_VS>
2.8897898197

> <CNNaffinity_variance>
0.1697210968

$$$$
[H]OC1([H])C([H])([H])OC([H])([H])C([H])([H])C1(c1c([H])c([H])c(C(F)(F)F)c([H])c1F)N([H])C(=O)c1c([H])nn2c([H])c(C([H])([H])[H])c([H])nc12


 33 36  0  0  0  0  0  0  0  0999 V2000
   33.0335  -23.8117   37.8514 C   0  0  0  0  0  0  0  0  0  0  0  0
   32.4988  -24.4108   39.0191 C   0  0  0  0  0  0  0  0  0  0  0  0
   31.4344  -25.4898   38.8885 C   0  0  0  0  0  0  0  0  0  0  0  0
   31.0645  -25.8832   37.6554 O   0  0  0  0  0  0  0  0  0  0  0  0
   32.0144  -25.8535   36.7075 C   0  0  0  0  0  0  0  0  0  0  0  0
   33.0898  -24.8707   36.7211 C   0  0  0  0  0  0  0  0  0  0  0  0
   34.3161  -25.5648   36.7628 O   0  0  0  0  0  0  0  0  0  0  0  0
   34.7044  -25.6635   35.8855 H   0  0  0  0  0  0  0  0  0  0  0  0
   32.5591  -22.6037   37.1977 C   0  0  0  0  0  0  0  0  0  0  0  0
   33.5018  -21.9291   36.4021 C   0  0  0  0  0  0  0  0  0  0  0  0
   33.1758  -20.8528   35.6097 C   0  0  0  0  0  0  0  0  0  0  0  0
   31.9132  -20.3639   35.5426 C   0  0  0  0  0  0  0  0  0  0  0  0
   30.9474  -21.0082   36.3182 C   0  0  0  0  0  0  0  0  0  0  0  0
   31.3101  -22.0890   37.1026 C   0  0  0  0  0  0  0  0  0  0  0  0
   30.3410  -22.6275   37.8451 F   0  0  0  0  0  0  0  0  0  0  0  0
   31.5502  -19.2310   34.6602 C   0  0  0  0  0  0  0  0  0  0  0  0
   31.6086  -19.6177   33.3160 F   0  0  0  0  0  0  0  0  0  0  0  0
   30.2854  -18.8070   34.9947 F   0  0  0  0  0  0  0  0  0  0  0  0
   32.3512  -18.1092   34.8604 F   0  0  0  0  0  0  0  0  0  0  0  0
   34.8039  -22.8134   39.2489 C   0  0  0  0  0  0  0  0  0  0  0  0
   33.8839  -22.5018   40.0594 O   0  0  0  0  0  0  0  0  0  0  0  0
   34.4947  -23.5317   38.0374 N   0  0  0  0  0  0  0  0  0  0  0  0
   35.2330  -23.7823   37.4029 H   0  0  0  0  0  0  0  0  0  0  0  0
   40.2830  -19.6647   37.0201 C   0  0  0  0  0  0  0  0  0  0  0  0
   39.1230  -20.3745   37.6676 C   0  0  0  0  0  0  0  0  0  0  0  0
   37.9235  -20.5519   37.0141 C   0  0  0  0  0  0  0  0  0  0  0  0
   36.8997  -21.1929   37.6089 N   0  0  0  0  0  0  0  0  0  0  0  0
   37.0350  -21.6699   38.8495 C   0  0  0  0  0  0  0  0  0  0  0  0
   36.1225  -22.3865   39.6403 C   0  0  0  0  0  0  0  0  0  0  0  0
   36.8073  -22.6214   40.7942 C   0  0  0  0  0  0  0  0  0  0  0  0
   38.0413  -22.0831   40.6897 N   0  0  0  0  0  0  0  0  0  0  0  0
   38.1777  -21.5090   39.5022 N   0  0  0  0  0  0  0  0  0  0  0  0
   39.2471  -20.8724   38.9615 C   0  0  0  0  0  0  0  0  0  0  0  0
 24 25  1  0  0  0
 25 26  1  0  0  0
 26 27  2  0  0  0
 27 28  1  0  0  0
 28 29  2  0  0  0
 29 20  1  0  0  0
 20 21  2  0  0  0
 20 22  1  0  0  0
 22  1  1  0  0  0
  1  9  1  0  0  0
  9 10  2  0  0  0
 10 11  1  0  0  0
 11 12  2  0  0  0
 12 16  1  0  0  0
 16 17  1  0  0  0
 16 18  1  0  0  0
 16 19  1  0  0  0
 12 13  1  0  0  0
 13 14  2  0  0  0
 14 15  1  0  0  0
  1  2  1  0  0  0
  2  3  1  0  0  0
  3  4  1  0  0  0
  4  5  1  0  0  0
  5  6  1  0  0  0
  6  7  1  0  0  0
 29 30  1  0  0  0
 30 31  2  0  0  0
 31 32  1  0  0  0
 32 33  1  0  0  0
 33 25  2  0  0  0
 32 28  1  0  0  0
  6  1  1  0  0  0
 14  9  1  0  0  0
 22 23  1  0  0  0
  7  8  1  0  0  0
M  END
> <minimizedAffinity>
-4.24042

> <CNNscore>
0.4386709034

> <CNNaffinity>
4.8220739365

> <CNN_VS>
2.1153035164

> <CNNaffinity_variance>
0.2317008227

$$$$
[H]OC1([H])C([H])([H])OC([H])([H])C([H])([H])C1(c1c([H])c([H])c(C(F)(F)F)c([H])c1F)N([H])C(=O)c1c([H])nn2c([H])c(C([H])([H])[H])c([H])nc12


 33 36  0  0  0  0  0  0  0  0999 V2000
   36.9655  -18.5282   35.5086 C   0  0  0  0  0  0  0  0  0  0  0  0
   37.9157  -19.0156   36.4402 C   0  0  0  0  0  0  0  0  0  0  0  0
   38.6937  -20.2841   36.1241 C   0  0  0  0  0  0  0  0  0  0  0  0
   38.4916  -20.8840   34.9362 O   0  0  0  0  0  0  0  0  0  0  0  0
   38.2004  -20.0800   33.9015 C   0  0  0  0  0  0  0  0  0  0  0  0
   37.4624  -18.8357   34.0730 C   0  0  0  0  0  0  0  0  0  0  0  0
   38.2679  -17.7805   33.5984 O   0  0  0  0  0  0  0  0  0  0  0  0
   38.0471  -17.5383   32.6915 H   0  0  0  0  0  0  0  0  0  0  0  0
   35.5444  -18.8296   35.4764 C   0  0  0  0  0  0  0  0  0  0  0  0
   34.7821  -18.0831   34.5607 C   0  0  0  0  0  0  0  0  0  0  0  0
   33.4545  -18.3416   34.3094 C   0  0  0  0  0  0  0  0  0  0  0  0
   32.7843  -19.3409   34.9339 C   0  0  0  0  0  0  0  0  0  0  0  0
   33.5080  -20.1062   35.8504 C   0  0  0  0  0  0  0  0  0  0  0  0
   34.8425  -19.8194   36.0778 C   0  0  0  0  0  0  0  0  0  0  0  0
   35.4564  -20.5686   36.9956 F   0  0  0  0  0  0  0  0  0  0  0  0
   31.3663  -19.6480   34.6364 C   0  0  0  0  0  0  0  0  0  0  0  0
   30.5207  -18.7443   35.2907 F   0  0  0  0  0  0  0  0  0  0  0  0
   31.1855  -19.5914   33.2741 F   0  0  0  0  0  0  0  0  0  0  0  0
   31.0109  -20.9516   34.9747 F   0  0  0  0  0  0  0  0  0  0  0  0
   36.5803  -16.4224   36.7339 C   0  0  0  0  0  0  0  0  0  0  0  0
   36.2797  -17.1440   37.7285 O   0  0  0  0  0  0  0  0  0  0  0  0
   36.9833  -17.0290   35.4893 N   0  0  0  0  0  0  0  0  0  0  0  0
   37.2282  -16.4479   34.7065 H   0  0  0  0  0  0  0  0  0  0  0  0
   32.1540  -11.4234   37.3005 C   0  0  0  0  0  0  0  0  0  0  0  0
   33.2633  -12.4388   37.2152 C   0  0  0  0  0  0  0  0  0  0  0  0
   33.0070  -13.7842   37.0696 C   0  0  0  0  0  0  0  0  0  0  0  0
   34.0130  -14.6757   36.9912 N   0  0  0  0  0  0  0  0  0  0  0  0
   35.2824  -14.2639   37.0527 C   0  0  0  0  0  0  0  0  0  0  0  0
   36.4719  -15.0046   36.9627 C   0  0  0  0  0  0  0  0  0  0  0  0
   37.4500  -14.0630   37.0729 C   0  0  0  0  0  0  0  0  0  0  0  0
   36.8764  -12.8487   37.2144 N   0  0  0  0  0  0  0  0  0  0  0  0
   35.5565  -12.9748   37.1967 N   0  0  0  0  0  0  0  0  0  0  0  0
   34.5908  -12.0256   37.2830 C   0  0  0  0  0  0  0  0  0  0  0  0
 24 25  1  0  0  0
 25 26  1  0  0  0
 26 27  2  0  0  0
 27 28  1  0  0  0
 28 29  2  0  0  0
 29 20  1  0  0  0
 20 21  2  0  0  0
 20 22  1  0  0  0
 22  1  1  0  0  0
  1  9  1  0  0  0
  9 10  2  0  0  0
 10 11  1  0  0  0
 11 12  2  0  0  0
 12 16  1  0  0  0
 16 17  1  0  0  0
 16 18  1  0  0  0
 16 19  1  0  0  0
 12 13  1  0  0  0
 13 14  2  0  0  0
 14 15  1  0  0  0
  1  2  1  0  0  0
  2  3  1  0  0  0
  3  4  1  0  0  0
  4  5  1  0  0  0
  5  6  1  0  0  0
  6  7  1  0  0  0
 29 30  1  0  0  0
 30 31  2  0  0  0
 31 32  1  0  0  0
 32 33  1  0  0  0
 33 25  2  0  0  0
 32 28  1  0  0  0
  6  1  1  0  0  0
 14  9  1  0  0  0
 22 23  1  0  0  0
  7  8  1  0  0  0
M  END
> <minimizedAffinity>
-8.21712

> <CNNscore>
0.4362998605

> <CNNaffinity>
5.8511834145

> <CNN_VS>
2.5528705120

> <CNNaffinity_variance>
0.1563098282

$$$$
[H]OC1([H])C([H])([H])OC([H])([H])C([H])([H])C1(c1c([H])c([H])c(C(F)(F)F)c([H])c1F)N([H])C(=O)c1c([H])nn2c([H])c(C([H])([H])[H])c([H])nc12


 33 36  0  0  0  0  0  0  0  0999 V2000
   33.2940  -19.7733   35.7091 C   0  0  0  0  0  0  0  0  0  0  0  0
   33.5558  -19.8241   34.3173 C   0  0  0  0  0  0  0  0  0  0  0  0
   32.8819  -20.8893   33.4656 C   0  0  0  0  0  0  0  0  0  0  0  0
   32.0098  -21.7283   34.0552 O   0  0  0  0  0  0  0  0  0  0  0  0
   31.2948  -21.2285   35.0753 C   0  0  0  0  0  0  0  0  0  0  0  0
   31.8265  -20.2026   35.9627 C   0  0  0  0  0  0  0  0  0  0  0  0
   30.9720  -19.0832   35.8984 O   0  0  0  0  0  0  0  0  0  0  0  0
   30.3329  -19.0757   36.6206 H   0  0  0  0  0  0  0  0  0  0  0  0
   34.0534  -20.4262   36.7620 C   0  0  0  0  0  0  0  0  0  0  0  0
   33.2932  -21.0607   37.7601 C   0  0  0  0  0  0  0  0  0  0  0  0
   33.8560  -21.8379   38.7459 C   0  0  0  0  0  0  0  0  0  0  0  0
   35.1934  -22.0454   38.8241 C   0  0  0  0  0  0  0  0  0  0  0  0
   35.9827  -21.4323   37.8493 C   0  0  0  0  0  0  0  0  0  0  0  0
   35.3832  -20.6584   36.8712 C   0  0  0  0  0  0  0  0  0  0  0  0
   36.2057  -20.0736   35.9983 F   0  0  0  0  0  0  0  0  0  0  0  0
   35.7991  -22.9139   39.8597 C   0  0  0  0  0  0  0  0  0  0  0  0
   36.3457  -22.1405   40.8907 F   0  0  0  0  0  0  0  0  0  0  0  0
   34.8268  -23.7587   40.3421 F   0  0  0  0  0  0  0  0  0  0  0  0
   36.7726  -23.7693   39.3488 F   0  0  0  0  0  0  0  0  0  0  0  0
   34.1300  -17.4671   35.4514 C   0  0  0  0  0  0  0  0  0  0  0  0
   34.8348  -17.9093   34.4985 O   0  0  0  0  0  0  0  0  0  0  0  0
   33.2468  -18.3486   36.1740 N   0  0  0  0  0  0  0  0  0  0  0  0
   32.6844  -17.9871   36.9247 H   0  0  0  0  0  0  0  0  0  0  0  0
   38.4377  -13.0198   38.0144 C   0  0  0  0  0  0  0  0  0  0  0  0
   37.3767  -13.8921   37.3962 C   0  0  0  0  0  0  0  0  0  0  0  0
   37.5733  -15.2398   37.1904 C   0  0  0  0  0  0  0  0  0  0  0  0
   36.6105  -16.0033   36.6400 N   0  0  0  0  0  0  0  0  0  0  0  0
   35.4428  -15.4602   36.2846 C   0  0  0  0  0  0  0  0  0  0  0  0
   34.3035  -16.0647   35.7295 C   0  0  0  0  0  0  0  0  0  0  0  0
   33.4220  -15.0347   35.5957 C   0  0  0  0  0  0  0  0  0  0  0  0
   34.0008  -13.9004   36.0449 N   0  0  0  0  0  0  0  0  0  0  0  0
   35.2295  -14.1647   36.4681 N   0  0  0  0  0  0  0  0  0  0  0  0
   36.1569  -13.3397   37.0161 C   0  0  0  0  0  0  0  0  0  0  0  0
 24 25  1  0  0  0
 25 26  1  0  0  0
 26 27  2  0  0  0
 27 28  1  0  0  0
 28 29  2  0  0  0
 29 20  1  0  0  0
 20 21  2  0  0  0
 20 22  1  0  0  0
 22  1  1  0  0  0
  1  9  1  0  0  0
  9 10  2  0  0  0
 10 11  1  0  0  0
 11 12  2  0  0  0
 12 16  1  0  0  0
 16 17  1  0  0  0
 16 18  1  0  0  0
 16 19  1  0  0  0
 12 13  1  0  0  0
 13 14  2  0  0  0
 14 15  1  0  0  0
  1  2  1  0  0  0
  2  3  1  0  0  0
  3  4  1  0  0  0
  4  5  1  0  0  0
  5  6  1  0  0  0
  6  7  1  0  0  0
 29 30  1  0  0  0
 30 31  2  0  0  0
 31 32  1  0  0  0
 32 33  1  0  0  0
 33 25  2  0  0  0
 32 28  1  0  0  0
  6  1  1  0  0  0
 14  9  1  0  0  0
 22 23  1  0  0  0
  7  8  1  0  0  0
M  END
> <minimizedAffinity>
-6.01833

> <CNNscore>
0.2877106965

> <CNNaffinity>
5.4060378075

> <CNN_VS>
1.5553748608

> <CNNaffinity_variance>
0.1318627447

$$$$
[H]OC1([H])C([H])([H])OC([H])([H])C([H])([H])C1(c1c([H])c([H])c(C(F)(F)F)c([H])c1F)N([H])C(=O)c1c([H])nn2c([H])c(C([H])([H])[H])c([H])nc12


 33 36  0  0  0  0  0  0  0  0999 V2000
   36.2898  -17.5265   35.7193 C   0  0  0  0  0  0  0  0  0  0  0  0
   36.2521  -16.4078   34.8501 C   0  0  0  0  0  0  0  0  0  0  0  0
   35.6029  -15.1146   35.3195 C   0  0  0  0  0  0  0  0  0  0  0  0
   35.1237  -15.0541   36.5760 O   0  0  0  0  0  0  0  0  0  0  0  0
   35.7788  -15.7720   37.5017 C   0  0  0  0  0  0  0  0  0  0  0  0
   36.4444  -17.0271   37.1784 C   0  0  0  0  0  0  0  0  0  0  0  0
   37.8088  -16.8960   37.5079 O   0  0  0  0  0  0  0  0  0  0  0  0
   38.0062  -17.2615   38.3782 H   0  0  0  0  0  0  0  0  0  0  0  0
   35.3121  -18.5984   35.8011 C   0  0  0  0  0  0  0  0  0  0  0  0
   34.4178  -18.6934   34.7205 C   0  0  0  0  0  0  0  0  0  0  0  0
   33.5263  -19.7316   34.5786 C   0  0  0  0  0  0  0  0  0  0  0  0
   33.4474  -20.7416   35.4795 C   0  0  0  0  0  0  0  0  0  0  0  0
   34.3208  -20.6834   36.5672 C   0  0  0  0  0  0  0  0  0  0  0  0
   35.2057  -19.6253   36.6777 C   0  0  0  0  0  0  0  0  0  0  0  0
   35.9809  -19.6185   37.7638 F   0  0  0  0  0  0  0  0  0  0  0  0
   32.5173  -21.8815   35.3092 C   0  0  0  0  0  0  0  0  0  0  0  0
   31.3090  -21.6321   35.9707 F   0  0  0  0  0  0  0  0  0  0  0  0
   32.3095  -22.0761   33.9637 F   0  0  0  0  0  0  0  0  0  0  0  0
   33.0528  -23.0892   35.7508 F   0  0  0  0  0  0  0  0  0  0  0  0
   38.0796  -18.2711   34.1942 C   0  0  0  0  0  0  0  0  0  0  0  0
   37.4570  -17.6530   33.2829 O   0  0  0  0  0  0  0  0  0  0  0  0
   37.5795  -18.2714   35.5467 N   0  0  0  0  0  0  0  0  0  0  0  0
   38.0850  -18.7585   36.2662 H   0  0  0  0  0  0  0  0  0  0  0  0
   41.0089  -24.2911   33.9078 C   0  0  0  0  0  0  0  0  0  0  0  0
   40.4760  -22.8825   33.8842 C   0  0  0  0  0  0  0  0  0  0  0  0
   39.2061  -22.5787   34.3227 C   0  0  0  0  0  0  0  0  0  0  0  0
   38.7498  -21.3123   34.2972 N   0  0  0  0  0  0  0  0  0  0  0  0
   39.5288  -20.3260   33.8441 C   0  0  0  0  0  0  0  0  0  0  0  0
   39.2731  -18.9481   33.7566 C   0  0  0  0  0  0  0  0  0  0  0  0
   40.4245  -18.4364   33.2388 C   0  0  0  0  0  0  0  0  0  0  0  0
   41.3012  -19.4436   33.0380 N   0  0  0  0  0  0  0  0  0  0  0  0
   40.7537  -20.5919   33.4125 N   0  0  0  0  0  0  0  0  0  0  0  0
   41.2740  -21.8451   33.4101 C   0  0  0  0  0  0  0  0  0  0  0  0
 24 25  1  0  0  0
 25 26  1  0  0  0
 26 27  2  0  0  0
 27 28  1  0  0  0
 28 29  2  0  0  0
 29 20  1  0  0  0
 20 21  2  0  0  0
 20 22  1  0  0  0
 22  1  1  0  0  0
  1  9  1  0  0  0
  9 10  2  0  0  0
 10 11  1  0  0  0
 11 12  2  0  0  0
 12 16  1  0  0  0
 16 17  1  0  0  0
 16 18  1  0  0  0
 16 19  1  0  0  0
 12 13  1  0  0  0
 13 14  2  0  0  0
 14 15  1  0  0  0
  1  2  1  0  0  0
  2  3  1  0  0  0
  3  4  1  0  0  0
  4  5  1  0  0  0
  5  6  1  0  0  0
  6  7  1  0  0  0
 29 30  1  0  0  0
 30 31  2  0  0  0
 31 32  1  0  0  0
 32 33  1  0  0  0
 33 25  2  0  0  0
 32 28  1  0  0  0
  6  1  1  0  0  0
 14  9  1  0  0  0
 22 23  1  0  0  0
  7  8  1  0  0  0
M  END
> <minimizedAffinity>
-5.45250

> <CNNscore>
0.2819150984

> <CNNaffinity>
4.9897165298

> <CNN_VS>
1.4066764116

> <CNNaffinity_variance>
0.7409523129

$$$$
[H]OC1([H])C([H])([H])OC([H])([H])C([H])([H])C1(c1c([H])c([H])c(C(F)(F)F)c([H])c1F)N([H])C(=O)c1c([H])nn2c([H])c(C([H])([H])[H])c([H])nc12


 33 36  0  0  0  0  0  0  0  0999 V2000
   35.9043  -16.9414   36.3499 C   0  0  0  0  0  0  0  0  0  0  0  0
   36.6303  -16.1454   35.4292 C   0  0  0  0  0  0  0  0  0  0  0  0
   36.2112  -14.7024   35.1918 C   0  0  0  0  0  0  0  0  0  0  0  0
   35.1852  -14.2042   35.9067 O   0  0  0  0  0  0  0  0  0  0  0  0
   35.0383  -14.6787   37.1537 C   0  0  0  0  0  0  0  0  0  0  0  0
   35.4047  -16.0431   37.5099 C   0  0  0  0  0  0  0  0  0  0  0  0
   36.3729  -15.9828   38.5329 O   0  0  0  0  0  0  0  0  0  0  0  0
   35.9800  -16.0863   39.4075 H   0  0  0  0  0  0  0  0  0  0  0  0
   34.7797  -17.8115   36.0505 C   0  0  0  0  0  0  0  0  0  0  0  0
   34.7805  -19.0573   36.7023 C   0  0  0  0  0  0  0  0  0  0  0  0
   33.7236  -19.9354   36.6352 C   0  0  0  0  0  0  0  0  0  0  0  0
   32.6003  -19.6580   35.9287 C   0  0  0  0  0  0  0  0  0  0  0  0
   32.5609  -18.4288   35.2676 C   0  0  0  0  0  0  0  0  0  0  0  0
   33.6414  -17.5690   35.3579 C   0  0  0  0  0  0  0  0  0  0  0  0
   33.5460  -16.4310   34.6677 F   0  0  0  0  0  0  0  0  0  0  0  0
   31.4444  -20.5830   35.8870 C   0  0  0  0  0  0  0  0  0  0  0  0
   31.6077  -21.5269   34.8662 F   0  0  0  0  0  0  0  0  0  0  0  0
   31.3354  -21.1985   37.1121 F   0  0  0  0  0  0  0  0  0  0  0  0
   30.2278  -19.9240   35.7258 F   0  0  0  0  0  0  0  0  0  0  0  0
   37.7643  -18.5580   36.2424 C   0  0  0  0  0  0  0  0  0  0  0  0
   37.7650  -18.3596   34.9930 O   0  0  0  0  0  0  0  0  0  0  0  0
   36.8359  -17.8530   37.0912 N   0  0  0  0  0  0  0  0  0  0  0  0
   36.8477  -18.0107   38.0838 H   0  0  0  0  0  0  0  0  0  0  0  0
   44.3344  -19.5193   37.1433 C   0  0  0  0  0  0  0  0  0  0  0  0
   42.8354  -19.4470   37.0143 C   0  0  0  0  0  0  0  0  0  0  0  0
   42.1959  -18.2971   36.6068 C   0  0  0  0  0  0  0  0  0  0  0  0
   40.8550  -18.2542   36.4939 N   0  0  0  0  0  0  0  0  0  0  0  0
   40.1216  -19.3344   36.7766 C   0  0  0  0  0  0  0  0  0  0  0  0
   38.7320  -19.5212   36.7006 C   0  0  0  0  0  0  0  0  0  0  0  0
   38.5565  -20.8151   37.0887 C   0  0  0  0  0  0  0  0  0  0  0  0
   39.7611  -21.3560   37.3710 N   0  0  0  0  0  0  0  0  0  0  0  0
   40.7119  -20.4526   37.1749 N   0  0  0  0  0  0  0  0  0  0  0  0
   42.0575  -20.5627   37.3103 C   0  0  0  0  0  0  0  0  0  0  0  0
 24 25  1  0  0  0
 25 26  1  0  0  0
 26 27  2  0  0  0
 27 28  1  0  0  0
 28 29  2  0  0  0
 29 20  1  0  0  0
 20 21  2  0  0  0
 20 22  1  0  0  0
 22  1  1  0  0  0
  1  9  1  0  0  0
  9 10  2  0  0  0
 10 11  1  0  0  0
 11 12  2  0  0  0
 12 16  1  0  0  0
 16 17  1  0  0  0
 16 18  1  0  0  0
 16 19  1  0  0  0
 12 13  1  0  0  0
 13 14  2  0  0  0
 14 15  1  0  0  0
  1  2  1  0  0  0
  2  3  1  0  0  0
  3  4  1  0  0  0
  4  5  1  0  0  0
  5  6  1  0  0  0
  6  7  1  0  0  0
 29 30  1  0  0  0
 30 31  2  0  0  0
 31 32  1  0  0  0
 32 33  1  0  0  0
 33 25  2  0  0  0
 32 28  1  0  0  0
  6  1  1  0  0  0
 14  9  1  0  0  0
 22 23  1  0  0  0
  7  8  1  0  0  0
M  END
> <minimizedAffinity>
-5.28273

> <CNNscore>
0.2701365054

> <CNNaffinity>
4.9458627701

> <CNN_VS>
1.3360581398

> <CNNaffinity_variance>
0.2639228106

$$$$
[H]OC1([H])C([H])([H])OC([H])([H])C([H])([H])C1(c1c([H])c([H])c(C(F)(F)F)c([H])c1F)N([H])C(=O)c1c([H])nn2c([H])c(C([H])([H])[H])c([H])nc12


 33 36  0  0  0  0  0  0  0  0999 V2000
   35.4325  -19.3988   36.4287 C   0  0  0  0  0  0  0  0  0  0  0  0
   34.7227  -18.2204   36.7690 C   0  0  0  0  0  0  0  0  0  0  0  0
   34.5225  -17.1362   35.7209 C   0  0  0  0  0  0  0  0  0  0  0  0
   34.9860  -17.3513   34.4755 O   0  0  0  0  0  0  0  0  0  0  0  0
   34.9692  -18.6215   34.0418 C   0  0  0  0  0  0  0  0  0  0  0  0
   35.1471  -19.7497   34.9462 C   0  0  0  0  0  0  0  0  0  0  0  0
   34.0058  -20.5716   34.8498 O   0  0  0  0  0  0  0  0  0  0  0  0
   34.1430  -21.3093   34.2440 H   0  0  0  0  0  0  0  0  0  0  0  0
   36.8569  -19.6349   36.5929 C   0  0  0  0  0  0  0  0  0  0  0  0
   37.2633  -20.9798   36.5409 C   0  0  0  0  0  0  0  0  0  0  0  0
   38.5853  -21.3605   36.5402 C   0  0  0  0  0  0  0  0  0  0  0  0
   39.5950  -20.4574   36.5916 C   0  0  0  0  0  0  0  0  0  0  0  0
   39.2315  -19.1103   36.6431 C   0  0  0  0  0  0  0  0  0  0  0  0
   37.8920  -18.7629   36.6407 C   0  0  0  0  0  0  0  0  0  0  0  0
   37.6229  -17.4591   36.7312 F   0  0  0  0  0  0  0  0  0  0  0  0
   41.0194  -20.8612   36.5503 C   0  0  0  0  0  0  0  0  0  0  0  0
   41.3065  -21.5260   35.3522 F   0  0  0  0  0  0  0  0  0  0  0  0
   41.7953  -19.7336   36.6843 F   0  0  0  0  0  0  0  0  0  0  0  0
   41.3882  -21.6605   37.6298 F   0  0  0  0  0  0  0  0  0  0  0  0
   34.7588  -20.4643   38.5488 C   0  0  0  0  0  0  0  0  0  0  0  0
   35.1687  -19.4128   39.1203 O   0  0  0  0  0  0  0  0  0  0  0  0
   34.8224  -20.5851   37.1133 N   0  0  0  0  0  0  0  0  0  0  0  0
   34.4870  -21.4209   36.6669 H   0  0  0  0  0  0  0  0  0  0  0  0
   29.7036  -24.7714   39.4416 C   0  0  0  0  0  0  0  0  0  0  0  0
   30.9100  -23.8722   39.3709 C   0  0  0  0  0  0  0  0  0  0  0  0
   31.1392  -23.0475   38.2918 C   0  0  0  0  0  0  0  0  0  0  0  0
   32.2217  -22.2480   38.2496 N   0  0  0  0  0  0  0  0  0  0  0  0
   33.0936  -22.2431   39.2617 C   0  0  0  0  0  0  0  0  0  0  0  0
   34.2580  -21.4788   39.4399 C   0  0  0  0  0  0  0  0  0  0  0  0
   34.7279  -21.8810   40.6536 C   0  0  0  0  0  0  0  0  0  0  0  0
   33.8952  -22.8163   41.1588 N   0  0  0  0  0  0  0  0  0  0  0  0
   32.8987  -23.0303   40.3104 N   0  0  0  0  0  0  0  0  0  0  0  0
   31.8301  -23.8599   40.4154 C   0  0  0  0  0  0  0  0  0  0  0  0
 24 25  1  0  0  0
 25 26  1  0  0  0
 26 27  2  0  0  0
 27 28  1  0  0  0
 28 29  2  0  0  0
 29 20  1  0  0  0
 20 21  2  0  0  0
 20 22  1  0  0  0
 22  1  1  0  0  0
  1  9  1  0  0  0
  9 10  2  0  0  0
 10 11  1  0  0  0
 11 12  2  0  0  0
 12 16  1  0  0  0
 16 17  1  0  0  0
 16 18  1  0  0  0
 16 19  1  0  0  0
 12 13  1  0  0  0
 13 14  2  0  0  0
 14 15  1  0  0  0
  1  2  1  0  0  0
  2  3  1  0  0  0
  3  4  1  0  0  0
  4  5  1  0  0  0
  5  6  1  0  0  0
  6  7  1  0  0  0
 29 30  1  0  0  0
 30 31  2  0  0  0
 31 32  1  0  0  0
 32 33  1  0  0  0
 33 25  2  0  0  0
 32 28  1  0  0  0
  6  1  1  0  0  0
 14  9  1  0  0  0
 22 23  1  0  0  0
  7  8  1  0  0  0
M  END
> <minimizedAffinity>
-4.45598

> <CNNscore>
0.2418919355

> <CNNaffinity>
4.7463316917

> <CNN_VS>
1.1480993032

> <CNNaffinity_variance>
0.1451752782

$$$$
[H]OC1([H])C([H])([H])OC([H])([H])C([H])([H])C1(c1c([H])c([H])c(C(F)(F)F)c([H])c1F)N([H])C(=O)c1c([H])nn2c([H])c(C([H])([H])[H])c([H])nc12


 33 36  0  0  0  0  0  0  0  0999 V2000
   35.9151  -22.0558   37.5931 C   0  0  0  0  0  0  0  0  0  0  0  0
   36.2225  -22.7407   38.7951 C   0  0  0  0  0  0  0  0  0  0  0  0
   35.1073  -23.0752   39.7741 C   0  0  0  0  0  0  0  0  0  0  0  0
   33.8427  -22.7528   39.4440 O   0  0  0  0  0  0  0  0  0  0  0  0
   33.5347  -22.7990   38.1384 C   0  0  0  0  0  0  0  0  0  0  0  0
   34.5145  -22.5021   37.1018 C   0  0  0  0  0  0  0  0  0  0  0  0
   34.6268  -23.6341   36.2691 O   0  0  0  0  0  0  0  0  0  0  0  0
   34.0810  -23.5552   35.4780 H   0  0  0  0  0  0  0  0  0  0  0  0
   35.9367  -20.6185   37.3804 C   0  0  0  0  0  0  0  0  0  0  0  0
   35.9404  -20.1995   36.0383 C   0  0  0  0  0  0  0  0  0  0  0  0
   35.8207  -18.8799   35.6682 C   0  0  0  0  0  0  0  0  0  0  0  0
   35.6916  -17.8849   36.5798 C   0  0  0  0  0  0  0  0  0  0  0  0
   35.6824  -18.2614   37.9242 C   0  0  0  0  0  0  0  0  0  0  0  0
   35.8035  -19.5981   38.2608 C   0  0  0  0  0  0  0  0  0  0  0  0
   35.8257  -19.8758   39.5658 F   0  0  0  0  0  0  0  0  0  0  0  0
   35.5220  -16.4678   36.1841 C   0  0  0  0  0  0  0  0  0  0  0  0
   36.4712  -16.1106   35.2191 F   0  0  0  0  0  0  0  0  0  0  0  0
   34.2448  -16.3007   35.7020 F   0  0  0  0  0  0  0  0  0  0  0  0
   35.5977  -15.5904   37.2633 F   0  0  0  0  0  0  0  0  0  0  0  0
   38.1816  -22.3147   36.6549 C   0  0  0  0  0  0  0  0  0  0  0  0
   38.5988  -21.7383   37.7009 O   0  0  0  0  0  0  0  0  0  0  0  0
   36.7732  -22.5658   36.4743 N   0  0  0  0  0  0  0  0  0  0  0  0
   36.4512  -23.0316   35.6437 H   0  0  0  0  0  0  0  0  0  0  0  0
   43.8091  -25.8844   35.9544 C   0  0  0  0  0  0  0  0  0  0  0  0
   42.5542  -25.0515   35.9520 C   0  0  0  0  0  0  0  0  0  0  0  0
   41.7153  -24.9986   37.0432 C   0  0  0  0  0  0  0  0  0  0  0  0
   40.6000  -24.2446   37.0226 N   0  0  0  0  0  0  0  0  0  0  0  0
   40.2907  -23.5314   35.9361 C   0  0  0  0  0  0  0  0  0  0  0  0
   39.2093  -22.6650   35.7088 C   0  0  0  0  0  0  0  0  0  0  0  0
   39.4182  -22.2105   34.4417 C   0  0  0  0  0  0  0  0  0  0  0  0
   40.5481  -22.7679   33.9560 N   0  0  0  0  0  0  0  0  0  0  0  0
   41.0790  -23.5678   34.8709 N   0  0  0  0  0  0  0  0  0  0  0  0
   42.2159  -24.3071   34.8255 C   0  0  0  0  0  0  0  0  0  0  0  0
 24 25  1  0  0  0
 25 26  1  0  0  0
 26 27  2  0  0  0
 27 28  1  0  0  0
 28 29  2  0  0  0
 29 20  1  0  0  0
 20 21  2  0  0  0
 20 22  1  0  0  0
 22  1  1  0  0  0
  1  9  1  0  0  0
  9 10  2  0  0  0
 10 11  1  0  0  0
 11 12  2  0  0  0
 12 16  1  0  0  0
 16 17  1  0  0  0
 16 18  1  0  0  0
 16 19  1  0  0  0
 12 13  1  0  0  0
 13 14  2  0  0  0
 14 15  1  0  0  0
  1  2  1  0  0  0
  2  3  1  0  0  0
  3  4  1  0  0  0
  4  5  1  0  0  0
  5  6  1  0  0  0
  6  7  1  0  0  0
 29 30  1  0  0  0
 30 31  2  0  0  0
 31 32  1  0  0  0
 32 33  1  0  0  0
 33 25  2  0  0  0
 32 28  1  0  0  0
  6  1  1  0  0  0
 14  9  1  0  0  0
 22 23  1  0  0  0
  7  8  1  0  0  0
M  END
> <minimizedAffinity>
-4.31899

> <CNNscore>
0.2106386423

> <CNNaffinity>
4.6805887222

> <CNN_VS>
0.9859128594

> <CNNaffinity_variance>
0.1550393701

$$$$
[H]OC1([H])C([H])([H])OC([H])([H])C([H])([H])C1(c1c([H])c([H])c(C(F)(F)F)c([H])c1F)N([H])C(=O)c1c([H])nn2c([H])c(C([H])([H])[H])c([H])nc12


 33 36  0  0  0  0  0  0  0  0999 V2000
   36.1972  -19.0531   35.4375 C   0  0  0  0  0  0  0  0  0  0  0  0
   36.9207  -19.3288   34.2505 C   0  0  0  0  0  0  0  0  0  0  0  0
   38.4274  -19.1207   34.2251 C   0  0  0  0  0  0  0  0  0  0  0  0
   39.0419  -18.7253   35.3556 O   0  0  0  0  0  0  0  0  0  0  0  0
   38.5115  -19.1614   36.5090 C   0  0  0  0  0  0  0  0  0  0  0  0
   37.0826  -19.4015   36.6609 C   0  0  0  0  0  0  0  0  0  0  0  0
   36.9024  -20.7513   37.0256 O   0  0  0  0  0  0  0  0  0  0  0  0
   36.8055  -20.8572   37.9793 H   0  0  0  0  0  0  0  0  0  0  0  0
   35.5567  -17.7986   35.7948 C   0  0  0  0  0  0  0  0  0  0  0  0
   36.2822  -16.9691   36.6678 C   0  0  0  0  0  0  0  0  0  0  0  0
   35.8805  -15.6938   36.9917 C   0  0  0  0  0  0  0  0  0  0  0  0
   34.7473  -15.1458   36.4884 C   0  0  0  0  0  0  0  0  0  0  0  0
   33.9993  -15.9387   35.6160 C   0  0  0  0  0  0  0  0  0  0  0  0
   34.4336  -17.2166   35.3108 C   0  0  0  0  0  0  0  0  0  0  0  0
   33.6461  -17.9273   34.5014 F   0  0  0  0  0  0  0  0  0  0  0  0
   34.3328  -13.7591   36.8029 C   0  0  0  0  0  0  0  0  0  0  0  0
   35.2533  -12.8417   36.2825 F   0  0  0  0  0  0  0  0  0  0  0  0
   33.0796  -13.5497   36.2764 F   0  0  0  0  0  0  0  0  0  0  0  0
   34.1714  -13.5377   38.1686 F   0  0  0  0  0  0  0  0  0  0  0  0
   34.4662  -20.0125   36.9096 C   0  0  0  0  0  0  0  0  0  0  0  0
   34.8448  -19.1727   37.7766 O   0  0  0  0  0  0  0  0  0  0  0  0
   35.0887  -20.0479   35.6094 N   0  0  0  0  0  0  0  0  0  0  0  0
   34.7760  -20.7132   34.9238 H   0  0  0  0  0  0  0  0  0  0  0  0
   33.1427  -25.2053   40.9329 C   0  0  0  0  0  0  0  0  0  0  0  0
   33.2801  -24.0319   39.9985 C   0  0  0  0  0  0  0  0  0  0  0  0
   34.4609  -23.3328   39.8789 C   0  0  0  0  0  0  0  0  0  0  0  0
   34.5645  -22.2891   39.0347 N   0  0  0  0  0  0  0  0  0  0  0  0
   33.5161  -21.9156   38.2956 C   0  0  0  0  0  0  0  0  0  0  0  0
   33.4096  -20.8906   37.3418 C   0  0  0  0  0  0  0  0  0  0  0  0
   32.1237  -20.9876   36.9030 C   0  0  0  0  0  0  0  0  0  0  0  0
   31.5141  -22.0034   37.5512 N   0  0  0  0  0  0  0  0  0  0  0  0
   32.3669  -22.5690   38.3947 N   0  0  0  0  0  0  0  0  0  0  0  0
   32.1951  -23.6277   39.2258 C   0  0  0  0  0  0  0  0  0  0  0  0
 24 25  1  0  0  0
 25 26  1  0  0  0
 26 27  2  0  0  0
 27 28  1  0  0  0
 28 29  2  0  0  0
 29 20  1  0  0  0
 20 21  2  0  0  0
 20 22  1  0  0  0
 22  1  1  0  0  0
  1  9  1  0  0  0
  9 10  2  0  0  0
 10 11  1  0  0  0
 11 12  2  0  0  0
 12 16  1  0  0  0
 16 17  1  0  0  0
 16 18  1  0  0  0
 16 19  1  0  0  0
 12 13  1  0  0  0
 13 14  2  0  0  0
 14 15  1  0  0  0
  1  2  1  0  0  0
  2  3  1  0  0  0
  3  4  1  0  0  0
  4  5  1  0  0  0
  5  6  1  0  0  0
  6  7  1  0  0  0
 29 30  1  0  0  0
 30 31  2  0  0  0
 31 32  1  0  0  0
 32 33  1  0  0  0
 33 25  2  0  0  0
 32 28  1  0  0  0
  6  1  1  0  0  0
 14  9  1  0  0  0
 22 23  1  0  0  0
  7  8  1  0  0  0
M  END
> <minimizedAffinity>
-7.15088

> <CNNscore>
0.2036983520

> <CNNaffinity>
4.8302884102

> <CNN_VS>
0.9839217663

> <CNNaffinity_variance>
0.4230279028

$$$$
[H]OC1([H])C([H])([H])OC([H])([H])C([H])([H])C1(c1c([H])c([H])c(C(F)(F)F)c([H])c1F)N([H])C(=O)c1c([H])nn2c([H])c(C([H])([H])[H])c([H])nc12


 33 36  0  0  0  0  0  0  0  0999 V2000
   36.3378  -18.6553   36.3810 C   0  0  0  0  0  0  0  0  0  0  0  0
   35.9589  -19.6360   35.4308 C   0  0  0  0  0  0  0  0  0  0  0  0
   36.6449  -19.6701   34.0735 C   0  0  0  0  0  0  0  0  0  0  0  0
   37.6358  -18.7918   33.8309 O   0  0  0  0  0  0  0  0  0  0  0  0
   38.3922  -18.4376   34.8816 C   0  0  0  0  0  0  0  0  0  0  0  0
   37.8539  -18.3690   36.2337 C   0  0  0  0  0  0  0  0  0  0  0  0
   38.5983  -19.2486   37.0458 O   0  0  0  0  0  0  0  0  0  0  0  0
   39.2959  -18.7901   37.5287 H   0  0  0  0  0  0  0  0  0  0  0  0
   35.7348  -17.3466   36.5688 C   0  0  0  0  0  0  0  0  0  0  0  0
   36.4397  -16.4635   37.4053 C   0  0  0  0  0  0  0  0  0  0  0  0
   36.0780  -15.1470   37.5746 C   0  0  0  0  0  0  0  0  0  0  0  0
   35.0071  -14.6072   36.9424 C   0  0  0  0  0  0  0  0  0  0  0  0
   34.2815  -15.4529   36.1013 C   0  0  0  0  0  0  0  0  0  0  0  0
   34.6745  -16.7715   35.9532 C   0  0  0  0  0  0  0  0  0  0  0  0
   33.9091  -17.5276   35.1638 F   0  0  0  0  0  0  0  0  0  0  0  0
   34.6384  -13.1804   37.0906 C   0  0  0  0  0  0  0  0  0  0  0  0
   33.7930  -12.7811   36.0487 F   0  0  0  0  0  0  0  0  0  0  0  0
   34.0263  -13.0138   38.3109 F   0  0  0  0  0  0  0  0  0  0  0  0
   35.7455  -12.3368   37.1453 F   0  0  0  0  0  0  0  0  0  0  0  0
   35.0398  -19.8393   38.1123 C   0  0  0  0  0  0  0  0  0  0  0  0
   34.0945  -19.8749   37.2724 O   0  0  0  0  0  0  0  0  0  0  0  0
   36.3016  -19.2345   37.7635 N   0  0  0  0  0  0  0  0  0  0  0  0
   37.0500  -19.2178   38.4343 H   0  0  0  0  0  0  0  0  0  0  0  0
   32.3501  -25.2567   40.9967 C   0  0  0  0  0  0  0  0  0  0  0  0
   32.9952  -23.9900   40.4985 C   0  0  0  0  0  0  0  0  0  0  0  0
   33.2251  -23.7704   39.1583 C   0  0  0  0  0  0  0  0  0  0  0  0
   33.7994  -22.6293   38.7328 N   0  0  0  0  0  0  0  0  0  0  0  0
   34.1554  -21.6877   39.6110 C   0  0  0  0  0  0  0  0  0  0  0  0
   34.7330  -20.4269   39.3908 C   0  0  0  0  0  0  0  0  0  0  0  0
   34.8553  -19.9027   40.6422 C   0  0  0  0  0  0  0  0  0  0  0  0
   34.3787  -20.7923   41.5393 N   0  0  0  0  0  0  0  0  0  0  0  0
   33.9489  -21.8759   40.9070 N   0  0  0  0  0  0  0  0  0  0  0  0
   33.3762  -23.0020   41.4019 C   0  0  0  0  0  0  0  0  0  0  0  0
 24 25  1  0  0  0
 25 26  1  0  0  0
 26 27  2  0  0  0
 27 28  1  0  0  0
 28 29  2  0  0  0
 29 20  1  0  0  0
 20 21  2  0  0  0
 20 22  1  0  0  0
 22  1  1  0  0  0
  1  9  1  0  0  0
  9 10  2  0  0  0
 10 11  1  0  0  0
 11 12  2  0  0  0
 12 16  1  0  0  0
 16 17  1  0  0  0
 16 18  1  0  0  0
 16 19  1  0  0  0
 12 13  1  0  0  0
 13 14  2  0  0  0
 14 15  1  0  0  0
  1  2  1  0  0  0
  2  3  1  0  0  0
  3  4  1  0  0  0
  4  5  1  0  0  0
  5  6  1  0  0  0
  6  7  1  0  0  0
 29 30  1  0  0  0
 30 31  2  0  0  0
 31 32  1  0  0  0
 32 33  1  0  0  0
 33 25  2  0  0  0
 32 28  1  0  0  0
  6  1  1  0  0  0
 14  9  1  0  0  0
 22 23  1  0  0  0
  7  8  1  0  0  0
M  END
> <minimizedAffinity>
-6.54451

> <CNNscore>
0.1798701882

> <CNNaffinity>
4.8430676460

> <CNN_VS>
0.8711234927

> <CNNaffinity_variance>
0.2812778354

$$$$
[H]OC(=O)C([H])([H])C([H])([H])[C@@]([H])(C(=O)N1C([H])([H])C([H])([H])C([H])([H])[C@@]1([H])C(=O)N([H])[C@]([H])(C(=O)OC([H])([H])[H])C([H])([H])c1c([H])c([H])c([H])c([H])c1[H])N([H])C(=O)[C@@]([H])(N([H])C(=O)OC([H])([H])c1c([H])c([H])c([H])c([H])c1[H])[C@@]([H])(C([H])([H])[H])C([H])([H])C([H])([H])[H]


 51 53  0  0  0  0  0  0  0  0999 V2000
   32.1485  -10.7819   37.8299 C   0  0  0  0  0  0  0  0  0  0  0  0
   30.8330  -11.3549   37.7902 C   0  0  0  0  0  0  0  0  0  0  0  0
   30.5361  -11.7261   36.5151 O   0  0  0  0  0  0  0  0  0  0  0  0
   29.7761  -11.6402   38.6284 N   0  0  0  0  0  0  0  0  0  0  0  0
   28.5393  -12.3121   38.1366 C   0  0  0  0  0  0  0  0  0  0  0  0
   27.4937  -11.3260   38.6141 C   0  0  0  0  0  0  0  0  0  0  0  0
   28.0090  -10.9188   39.9526 C   0  0  0  0  0  0  0  0  0  0  0  0
   29.4856  -11.3923   39.9908 C   0  0  0  0  0  0  0  0  0  0  0  0
   29.4776  -12.5653   40.8807 C   0  0  0  0  0  0  0  0  0  0  0  0
   30.4688  -13.3113   40.9473 O   0  0  0  0  0  0  0  0  0  0  0  0
   28.3309  -12.8447   41.6630 N   0  0  0  0  0  0  0  0  0  0  0  0
   27.4808  -12.2410   41.6488 H   0  0  0  0  0  0  0  0  0  0  0  0
   28.3262  -14.0364   42.5347 C   0  0  0  0  0  0  0  0  0  0  0  0
   29.3615  -13.9184   43.5686 C   0  0  0  0  0  0  0  0  0  0  0  0
   29.3357  -12.9118   44.3713 O   0  0  0  0  0  0  0  0  0  0  0  0
   30.3772  -14.7996   43.7708 O   0  0  0  0  0  0  0  0  0  0  0  0
   30.2662  -15.9024   44.6840 C   0  0  0  0  0  0  0  0  0  0  0  0
   28.5507  -15.2405   41.6785 C   0  0  0  0  0  0  0  0  0  0  0  0
   27.5609  -16.3056   41.7752 C   0  0  0  0  0  0  0  0  0  0  0  0
   27.6587  -17.3416   40.8491 C   0  0  0  0  0  0  0  0  0  0  0  0
   26.7617  -18.3680   40.9237 C   0  0  0  0  0  0  0  0  0  0  0  0
   25.7682  -18.4149   41.8791 C   0  0  0  0  0  0  0  0  0  0  0  0
   25.6992  -17.3531   42.7990 C   0  0  0  0  0  0  0  0  0  0  0  0
   26.5835  -16.3243   42.7370 C   0  0  0  0  0  0  0  0  0  0  0  0
   33.5179  -12.9233   37.7091 C   0  0  0  0  0  0  0  0  0  0  0  0
   33.3223  -13.0065   38.9778 O   0  0  0  0  0  0  0  0  0  0  0  0
   32.9570  -11.8273   37.0515 N   0  0  0  0  0  0  0  0  0  0  0  0
   33.0658  -11.6755   36.0321 H   0  0  0  0  0  0  0  0  0  0  0  0
   34.3094  -13.9845   37.1211 C   0  0  0  0  0  0  0  0  0  0  0  0
   33.5533  -14.8149   36.2195 N   0  0  0  0  0  0  0  0  0  0  0  0
   33.8459  -16.0851   35.7086 C   0  0  0  0  0  0  0  0  0  0  0  0
   34.8487  -16.7924   35.9175 O   0  0  0  0  0  0  0  0  0  0  0  0
   32.6082  -14.4026   35.8763 H   0  0  0  0  0  0  0  0  0  0  0  0
   32.9122  -16.6964   34.8267 O   0  0  0  0  0  0  0  0  0  0  0  0
   33.2378  -17.8370   34.0755 C   0  0  0  0  0  0  0  0  0  0  0  0
   32.4941  -19.0400   34.4297 C   0  0  0  0  0  0  0  0  0  0  0  0
   32.9941  -20.2886   34.0742 C   0  0  0  0  0  0  0  0  0  0  0  0
   32.3482  -21.4615   34.3681 C   0  0  0  0  0  0  0  0  0  0  0  0
   31.1365  -21.4260   35.0522 C   0  0  0  0  0  0  0  0  0  0  0  0
   30.6314  -20.1894   35.4102 C   0  0  0  0  0  0  0  0  0  0  0  0
   31.2959  -19.0171   35.1060 C   0  0  0  0  0  0  0  0  0  0  0  0
   35.5885  -13.5619   36.4330 C   0  0  0  0  0  0  0  0  0  0  0  0
   35.5805  -12.1087   35.9813 C   0  0  0  0  0  0  0  0  0  0  0  0
   36.9881  -15.0741   37.8852 C   0  0  0  0  0  0  0  0  0  0  0  0
   36.7001  -13.6437   37.4719 C   0  0  0  0  0  0  0  0  0  0  0  0
   32.5515   -9.4652   37.3815 C   0  0  0  0  0  0  0  0  0  0  0  0
   34.0009   -9.1371   37.2259 C   0  0  0  0  0  0  0  0  0  0  0  0
   34.2286   -8.2629   36.0169 C   0  0  0  0  0  0  0  0  0  0  0  0
   33.6617   -7.1523   35.9348 O   0  0  0  0  0  0  0  0  0  0  0  0
   35.0607   -8.6486   34.9699 O   0  0  0  0  0  0  0  0  0  0  0  0
   35.5583   -8.0076   34.3976 H   0  0  0  0  0  0  0  0  0  0  0  0
 44 45  1  0  0  0
 45 42  1  0  0  0
 42 43  1  0  0  0
 42 29  1  0  0  0
 29 30  1  0  0  0
 30 31  1  0  0  0
 31 32  2  0  0  0
 31 34  1  0  0  0
 34 35  1  0  0  0
 35 36  1  0  0  0
 36 37  2  0  0  0
 37 38  1  0  0  0
 38 39  2  0  0  0
 39 40  1  0  0  0
 40 41  2  0  0  0
 29 25  1  0  0  0
 25 26  2  0  0  0
 25 27  1  0  0  0
 27  1  1  0  0  0
  1 46  1  0  0  0
 46 47  1  0  0  0
 47 48  1  0  0  0
 48 49  2  0  0  0
 48 50  1  0  0  0
  1  2  1  0  0  0
  2  3  2  0  0  0
  2  4  1  0  0  0
  4  5  1  0  0  0
  5  6  1  0  0  0
  6  7  1  0  0  0
  7  8  1  0  0  0
  8  9  1  0  0  0
  9 10  2  0  0  0
  9 11  1  0  0  0
 11 13  1  0  0  0
 13 18  1  0  0  0
 18 19  1  0  0  0
 19 20  2  0  0  0
 20 21  1  0  0  0
 21 22  2  0  0  0
 22 23  1  0  0  0
 23 24  2  0  0  0
 13 14  1  0  0  0
 14 15  2  0  0  0
 14 16  1  0  0  0
 16 17  1  0  0  0
 41 36  1  0  0  0
  8  4  1  0  0  0
 24 19  1  0  0  0
 30 33  1  0  0  0
 27 28  1  0  0  0
 50 51  1  0  0  0
 11 12  1  0  0  0
M  END
> <minimizedAffinity>
-8.46339

> <CNNscore>
0.7438389063

> <CNNaffinity>
7.5095467567

> <CNN_VS>
5.5858931541

> <CNNaffinity_variance>
0.0813342780

$$$$
[H]OC(=O)C([H])([H])C([H])([H])[C@@]([H])(C(=O)N1C([H])([H])C([H])([H])C([H])([H])[C@@]1([H])C(=O)N([H])[C@]([H])(C(=O)OC([H])([H])[H])C([H])([H])c1c([H])c([H])c([H])c([H])c1[H])N([H])C(=O)[C@@]([H])(N([H])C(=O)OC([H])([H])c1c([H])c([H])c([H])c([H])c1[H])[C@@]([H])(C([H])([H])[H])C([H])([H])C([H])([H])[H]


 51 53  0  0  0  0  0  0  0  0999 V2000
   32.2313  -10.6772   37.8722 C   0  0  0  0  0  0  0  0  0  0  0  0
   30.8888  -11.1660   37.7334 C   0  0  0  0  0  0  0  0  0  0  0  0
   30.5758  -11.2690   36.4132 O   0  0  0  0  0  0  0  0  0  0  0  0
   29.8176  -11.5549   38.5095 N   0  0  0  0  0  0  0  0  0  0  0  0
   28.5495  -12.0573   37.9073 C   0  0  0  0  0  0  0  0  0  0  0  0
   27.5539  -11.1314   38.5744 C   0  0  0  0  0  0  0  0  0  0  0  0
   28.0868  -11.0160   39.9621 C   0  0  0  0  0  0  0  0  0  0  0  0
   29.5377  -11.5604   39.8963 C   0  0  0  0  0  0  0  0  0  0  0  0
   29.4695  -12.8812   40.5435 C   0  0  0  0  0  0  0  0  0  0  0  0
   30.2060  -13.8068   40.1636 O   0  0  0  0  0  0  0  0  0  0  0  0
   28.5563  -13.0967   41.6040 N   0  0  0  0  0  0  0  0  0  0  0  0
   27.9271  -12.3470   41.9641 H   0  0  0  0  0  0  0  0  0  0  0  0
   28.4810  -14.4316   42.2301 C   0  0  0  0  0  0  0  0  0  0  0  0
   27.1396  -14.6649   42.7785 C   0  0  0  0  0  0  0  0  0  0  0  0
   26.7288  -13.9428   43.7624 O   0  0  0  0  0  0  0  0  0  0  0  0
   26.2571  -15.5980   42.3318 O   0  0  0  0  0  0  0  0  0  0  0  0
   26.4520  -17.0043   42.5478 C   0  0  0  0  0  0  0  0  0  0  0  0
   29.5230  -14.5040   43.2989 C   0  0  0  0  0  0  0  0  0  0  0  0
   30.0368  -15.8286   43.6228 C   0  0  0  0  0  0  0  0  0  0  0  0
   30.4177  -16.0500   44.9444 C   0  0  0  0  0  0  0  0  0  0  0  0
   30.8828  -17.2864   45.2892 C   0  0  0  0  0  0  0  0  0  0  0  0
   30.9875  -18.3180   44.3799 C   0  0  0  0  0  0  0  0  0  0  0  0
   30.5930  -18.0601   43.0546 C   0  0  0  0  0  0  0  0  0  0  0  0
   30.1294  -16.8350   42.6959 C   0  0  0  0  0  0  0  0  0  0  0  0
   33.5237  -12.8666   37.7631 C   0  0  0  0  0  0  0  0  0  0  0  0
   33.2901  -12.9564   39.0248 O   0  0  0  0  0  0  0  0  0  0  0  0
   33.0220  -11.7434   37.1036 N   0  0  0  0  0  0  0  0  0  0  0  0
   33.1644  -11.5845   36.0895 H   0  0  0  0  0  0  0  0  0  0  0  0
   34.2915  -13.9500   37.1842 C   0  0  0  0  0  0  0  0  0  0  0  0
   33.5089  -14.7906   36.3153 N   0  0  0  0  0  0  0  0  0  0  0  0
   33.8153  -16.0367   35.7554 C   0  0  0  0  0  0  0  0  0  0  0  0
   34.8567  -16.7073   35.8796 O   0  0  0  0  0  0  0  0  0  0  0  0
   32.5274  -14.4097   36.0461 H   0  0  0  0  0  0  0  0  0  0  0  0
   32.8485  -16.6661   34.9233 O   0  0  0  0  0  0  0  0  0  0  0  0
   33.1836  -17.7286   34.0689 C   0  0  0  0  0  0  0  0  0  0  0  0
   32.5429  -18.9992   34.3866 C   0  0  0  0  0  0  0  0  0  0  0  0
   31.3854  -19.0130   35.1581 C   0  0  0  0  0  0  0  0  0  0  0  0
   30.7318  -20.1682   35.5010 C   0  0  0  0  0  0  0  0  0  0  0  0
   31.2303  -21.3939   35.0691 C   0  0  0  0  0  0  0  0  0  0  0  0
   32.3805  -21.3905   34.3012 C   0  0  0  0  0  0  0  0  0  0  0  0
   33.0263  -20.2166   33.9649 C   0  0  0  0  0  0  0  0  0  0  0  0
   35.5624  -13.5582   36.4634 C   0  0  0  0  0  0  0  0  0  0  0  0
   35.5661  -12.1130   35.9868 C   0  0  0  0  0  0  0  0  0  0  0  0
   36.9681  -15.0657   37.9145 C   0  0  0  0  0  0  0  0  0  0  0  0
   36.6935  -13.6387   37.4811 C   0  0  0  0  0  0  0  0  0  0  0  0
   32.7390   -9.3734   37.4986 C   0  0  0  0  0  0  0  0  0  0  0  0
   34.1777   -9.2057   37.1319 C   0  0  0  0  0  0  0  0  0  0  0  0
   34.3309   -8.2478   35.9757 C   0  0  0  0  0  0  0  0  0  0  0  0
   33.7227   -7.1562   35.9856 O   0  0  0  0  0  0  0  0  0  0  0  0
   35.1380   -8.5340   34.8785 O   0  0  0  0  0  0  0  0  0  0  0  0
   35.5918   -7.8394   34.3330 H   0  0  0  0  0  0  0  0  0  0  0  0
 44 45  1  0  0  0
 45 42  1  0  0  0
 42 43  1  0  0  0
 42 29  1  0  0  0
 29 30  1  0  0  0
 30 31  1  0  0  0
 31 32  2  0  0  0
 31 34  1  0  0  0
 34 35  1  0  0  0
 35 36  1  0  0  0
 36 37  2  0  0  0
 37 38  1  0  0  0
 38 39  2  0  0  0
 39 40  1  0  0  0
 40 41  2  0  0  0
 29 25  1  0  0  0
 25 26  2  0  0  0
 25 27  1  0  0  0
 27  1  1  0  0  0
  1 46  1  0  0  0
 46 47  1  0  0  0
 47 48  1  0  0  0
 48 49  2  0  0  0
 48 50  1  0  0  0
  1  2  1  0  0  0
  2  3  2  0  0  0
  2  4  1  0  0  0
  4  5  1  0  0  0
  5  6  1  0  0  0
  6  7  1  0  0  0
  7  8  1  0  0  0
  8  9  1  0  0  0
  9 10  2  0  0  0
  9 11  1  0  0  0
 11 13  1  0  0  0
 13 18  1  0  0  0
 18 19  1  0  0  0
 19 20  2  0  0  0
 20 21  1  0  0  0
 21 22  2  0  0  0
 22 23  1  0  0  0
 23 24  2  0  0  0
 13 14  1  0  0  0
 14 15  2  0  0  0
 14 16  1  0  0  0
 16 17  1  0  0  0
 41 36  1  0  0  0
  8  4  1  0  0  0
 24 19  1  0  0  0
 30 33  1  0  0  0
 27 28  1  0  0  0
 50 51  1  0  0  0
 11 12  1  0  0  0
M  END
> <minimizedAffinity>
-8.11083

> <CNNscore>
0.6772357821

> <CNNaffinity>
7.5177483559

> <CNN_VS>
5.0912880898

> <CNNaffinity_variance>
0.0682941526

$$$$
[H]OC(=O)C([H])([H])C([H])([H])[C@@]([H])(C(=O)N1C([H])([H])C([H])([H])C([H])([H])[C@@]1([H])C(=O)N([H])[C@]([H])(C(=O)OC([H])([H])[H])C([H])([H])c1c([H])c([H])c([H])c([H])c1[H])N([H])C(=O)[C@@]([H])(N([H])C(=O)OC([H])([H])c1c([H])c([H])c([H])c([H])c1[H])[C@@]([H])(C([H])([H])[H])C([H])([H])C([H])([H])[H]


 51 53  0  0  0  0  0  0  0  0999 V2000
   32.2128  -10.8530   37.8237 C   0  0  0  0  0  0  0  0  0  0  0  0
   30.8970  -11.4245   37.7727 C   0  0  0  0  0  0  0  0  0  0  0  0
   30.7591  -12.1487   36.6290 O   0  0  0  0  0  0  0  0  0  0  0  0
   29.7309  -11.4660   38.5072 N   0  0  0  0  0  0  0  0  0  0  0  0
   28.5496  -12.2613   38.0660 C   0  0  0  0  0  0  0  0  0  0  0  0
   27.4809  -11.1887   38.0966 C   0  0  0  0  0  0  0  0  0  0  0  0
   27.8281  -10.4098   39.3196 C   0  0  0  0  0  0  0  0  0  0  0  0
   29.2717  -10.8397   39.6899 C   0  0  0  0  0  0  0  0  0  0  0  0
   29.1110  -11.7078   40.8683 C   0  0  0  0  0  0  0  0  0  0  0  0
   30.0295  -12.4664   41.2209 O   0  0  0  0  0  0  0  0  0  0  0  0
   27.9001  -11.6781   41.6018 N   0  0  0  0  0  0  0  0  0  0  0  0
   27.1067  -11.0497   41.3504 H   0  0  0  0  0  0  0  0  0  0  0  0
   27.7422  -12.5694   42.7682 C   0  0  0  0  0  0  0  0  0  0  0  0
   26.6631  -13.5359   42.5314 C   0  0  0  0  0  0  0  0  0  0  0  0
   25.7980  -13.7517   43.4607 O   0  0  0  0  0  0  0  0  0  0  0  0
   26.4792  -14.2470   41.3871 O   0  0  0  0  0  0  0  0  0  0  0  0
   27.5123  -15.0665   40.8182 C   0  0  0  0  0  0  0  0  0  0  0  0
   27.4574  -11.7226   43.9661 C   0  0  0  0  0  0  0  0  0  0  0  0
   26.9843  -10.3679   43.7121 C   0  0  0  0  0  0  0  0  0  0  0  0
   25.6063  -10.1921   43.6064 C   0  0  0  0  0  0  0  0  0  0  0  0
   25.1257   -8.9326   43.3908 C   0  0  0  0  0  0  0  0  0  0  0  0
   25.9522   -7.8345   43.2753 C   0  0  0  0  0  0  0  0  0  0  0  0
   27.3378   -8.0481   43.3883 C   0  0  0  0  0  0  0  0  0  0  0  0
   27.8313   -9.2952   43.6016 C   0  0  0  0  0  0  0  0  0  0  0  0
   33.5436  -13.0211   37.7593 C   0  0  0  0  0  0  0  0  0  0  0  0
   33.2937  -13.0998   39.0187 O   0  0  0  0  0  0  0  0  0  0  0  0
   33.0324  -11.9145   37.0794 N   0  0  0  0  0  0  0  0  0  0  0  0
   33.1865  -11.7653   36.0655 H   0  0  0  0  0  0  0  0  0  0  0  0
   34.3379  -14.0979   37.2044 C   0  0  0  0  0  0  0  0  0  0  0  0
   33.6097  -14.9016   36.2569 N   0  0  0  0  0  0  0  0  0  0  0  0
   33.9380  -16.1375   35.6870 C   0  0  0  0  0  0  0  0  0  0  0  0
   34.9569  -16.8291   35.8696 O   0  0  0  0  0  0  0  0  0  0  0  0
   32.6570  -14.4967   35.9261 H   0  0  0  0  0  0  0  0  0  0  0  0
   33.0266  -16.7278   34.7682 O   0  0  0  0  0  0  0  0  0  0  0  0
   33.3342  -17.9078   34.0723 C   0  0  0  0  0  0  0  0  0  0  0  0
   32.5300  -19.0668   34.4407 C   0  0  0  0  0  0  0  0  0  0  0  0
   32.9713  -20.3443   34.1109 C   0  0  0  0  0  0  0  0  0  0  0  0
   32.2669  -21.4791   34.4194 C   0  0  0  0  0  0  0  0  0  0  0  0
   31.0532  -21.3728   35.0926 C   0  0  0  0  0  0  0  0  0  0  0  0
   30.6062  -20.1071   35.4251 C   0  0  0  0  0  0  0  0  0  0  0  0
   31.3293  -18.9740   35.1064 C   0  0  0  0  0  0  0  0  0  0  0  0
   35.6620  -13.7034   36.5885 C   0  0  0  0  0  0  0  0  0  0  0  0
   35.9292  -12.2060   36.6372 C   0  0  0  0  0  0  0  0  0  0  0  0
   37.9357  -13.3909   37.6310 C   0  0  0  0  0  0  0  0  0  0  0  0
   36.7552  -14.3252   37.4487 C   0  0  0  0  0  0  0  0  0  0  0  0
   32.6261   -9.5458   37.3572 C   0  0  0  0  0  0  0  0  0  0  0  0
   34.0728   -9.2567   37.1209 C   0  0  0  0  0  0  0  0  0  0  0  0
   34.2501   -8.3063   35.9620 C   0  0  0  0  0  0  0  0  0  0  0  0
   33.5525   -7.2719   35.8916 O   0  0  0  0  0  0  0  0  0  0  0  0
   35.1769   -8.5371   34.9497 O   0  0  0  0  0  0  0  0  0  0  0  0
   35.6182   -7.8137   34.4321 H   0  0  0  0  0  0  0  0  0  0  0  0
 44 45  1  0  0  0
 45 42  1  0  0  0
 42 43  1  0  0  0
 42 29  1  0  0  0
 29 30  1  0  0  0
 30 31  1  0  0  0
 31 32  2  0  0  0
 31 34  1  0  0  0
 34 35  1  0  0  0
 35 36  1  0  0  0
 36 37  2  0  0  0
 37 38  1  0  0  0
 38 39  2  0  0  0
 39 40  1  0  0  0
 40 41  2  0  0  0
 29 25  1  0  0  0
 25 26  2  0  0  0
 25 27  1  0  0  0
 27  1  1  0  0  0
  1 46  1  0  0  0
 46 47  1  0  0  0
 47 48  1  0  0  0
 48 49  2  0  0  0
 48 50  1  0  0  0
  1  2  1  0  0  0
  2  3  2  0  0  0
  2  4  1  0  0  0
  4  5  1  0  0  0
  5  6  1  0  0  0
  6  7  1  0  0  0
  7  8  1  0  0  0
  8  9  1  0  0  0
  9 10  2  0  0  0
  9 11  1  0  0  0
 11 13  1  0  0  0
 13 18  1  0  0  0
 18 19  1  0  0  0
 19 20  2  0  0  0
 20 21  1  0  0  0
 21 22  2  0  0  0
 22 23  1  0  0  0
 23 24  2  0  0  0
 13 14  1  0  0  0
 14 15  2  0  0  0
 14 16  1  0  0  0
 16 17  1  0  0  0
 41 36  1  0  0  0
  8  4  1  0  0  0
 24 19  1  0  0  0
 30 33  1  0  0  0
 27 28  1  0  0  0
 50 51  1  0  0  0
 11 12  1  0  0  0
M  END
> <minimizedAffinity>
-8.44220

> <CNNscore>
0.5994036794

> <CNNaffinity>
7.3251266479

> <CNN_VS>
4.3907079697

> <CNNaffinity_variance>
0.0386749282

$$$$
[H]OC(=O)C([H])([H])C([H])([H])[C@@]([H])(C(=O)N1C([H])([H])C([H])([H])C([H])([H])[C@@]1([H])C(=O)N([H])[C@]([H])(C(=O)OC([H])([H])[H])C([H])([H])c1c([H])c([H])c([H])c([H])c1[H])N([H])C(=O)[C@@]([H])(N([H])C(=O)OC([H])([H])c1c([H])c([H])c([H])c([H])c1[H])[C@@]([H])(C([H])([H])[H])C([H])([H])C([H])([H])[H]


 51 53  0  0  0  0  0  0  0  0999 V2000
   32.3265  -10.7212   37.7839 C   0  0  0  0  0  0  0  0  0  0  0  0
   31.0759  -11.4251   37.7549 C   0  0  0  0  0  0  0  0  0  0  0  0
   30.9204  -12.0278   36.5448 O   0  0  0  0  0  0  0  0  0  0  0  0
   29.9831  -11.6769   38.5571 N   0  0  0  0  0  0  0  0  0  0  0  0
   28.8570  -12.5435   38.1057 C   0  0  0  0  0  0  0  0  0  0  0  0
   27.6908  -11.6055   38.3374 C   0  0  0  0  0  0  0  0  0  0  0  0
   28.0546  -10.9346   39.6183 C   0  0  0  0  0  0  0  0  0  0  0  0
   29.5596  -11.2413   39.8349 C   0  0  0  0  0  0  0  0  0  0  0  0
   29.5836  -12.2479   40.9091 C   0  0  0  0  0  0  0  0  0  0  0  0
   30.6328  -12.8566   41.1777 O   0  0  0  0  0  0  0  0  0  0  0  0
   28.4016  -12.5245   41.6381 N   0  0  0  0  0  0  0  0  0  0  0  0
   27.5012  -12.0309   41.4560 H   0  0  0  0  0  0  0  0  0  0  0  0
   28.4324  -13.5521   42.6978 C   0  0  0  0  0  0  0  0  0  0  0  0
   28.3749  -12.9228   44.0227 C   0  0  0  0  0  0  0  0  0  0  0  0
   29.4681  -12.7360   44.6773 O   0  0  0  0  0  0  0  0  0  0  0  0
   27.2426  -12.5004   44.6460 O   0  0  0  0  0  0  0  0  0  0  0  0
   26.7377  -11.1642   44.4976 C   0  0  0  0  0  0  0  0  0  0  0  0
   29.6827  -14.3538   42.5329 C   0  0  0  0  0  0  0  0  0  0  0  0
   29.5686  -15.7924   42.7347 C   0  0  0  0  0  0  0  0  0  0  0  0
   30.3320  -16.3466   43.7599 C   0  0  0  0  0  0  0  0  0  0  0  0
   30.2334  -17.6883   43.9923 C   0  0  0  0  0  0  0  0  0  0  0  0
   29.4086  -18.5092   43.2522 C   0  0  0  0  0  0  0  0  0  0  0  0
   28.6512  -17.9163   42.2259 C   0  0  0  0  0  0  0  0  0  0  0  0
   28.7393  -16.5833   41.9816 C   0  0  0  0  0  0  0  0  0  0  0  0
   33.6880  -12.8703   37.8420 C   0  0  0  0  0  0  0  0  0  0  0  0
   33.2558  -12.9985   39.0468 O   0  0  0  0  0  0  0  0  0  0  0  0
   33.2647  -11.7451   37.1328 N   0  0  0  0  0  0  0  0  0  0  0  0
   33.5647  -11.5568   36.1589 H   0  0  0  0  0  0  0  0  0  0  0  0
   34.5734  -13.9169   37.3739 C   0  0  0  0  0  0  0  0  0  0  0  0
   33.9467  -14.7986   36.4232 N   0  0  0  0  0  0  0  0  0  0  0  0
   34.1952  -16.1491   36.1506 C   0  0  0  0  0  0  0  0  0  0  0  0
   35.0355  -16.9037   36.6742 O   0  0  0  0  0  0  0  0  0  0  0  0
   33.1576  -14.3592   35.8187 H   0  0  0  0  0  0  0  0  0  0  0  0
   33.4179  -16.7966   35.1507 O   0  0  0  0  0  0  0  0  0  0  0  0
   33.6436  -18.1333   34.7850 C   0  0  0  0  0  0  0  0  0  0  0  0
   35.0471  -18.5183   34.6963 C   0  0  0  0  0  0  0  0  0  0  0  0
   35.5566  -19.4711   35.5726 C   0  0  0  0  0  0  0  0  0  0  0  0
   36.8654  -19.8784   35.5522 C   0  0  0  0  0  0  0  0  0  0  0  0
   37.7420  -19.3277   34.6218 C   0  0  0  0  0  0  0  0  0  0  0  0
   37.2448  -18.3798   33.7461 C   0  0  0  0  0  0  0  0  0  0  0  0
   35.9226  -17.9812   33.7807 C   0  0  0  0  0  0  0  0  0  0  0  0
   35.9037  -13.4659   36.8125 C   0  0  0  0  0  0  0  0  0  0  0  0
   36.0019  -11.9585   36.6272 C   0  0  0  0  0  0  0  0  0  0  0  0
   38.3291  -13.2681   37.4698 C   0  0  0  0  0  0  0  0  0  0  0  0
   36.9632  -13.8030   37.8543 C   0  0  0  0  0  0  0  0  0  0  0  0
   32.6178   -9.4159   37.2285 C   0  0  0  0  0  0  0  0  0  0  0  0
   34.0291   -8.9313   37.1524 C   0  0  0  0  0  0  0  0  0  0  0  0
   34.2596   -8.1399   35.8880 C   0  0  0  0  0  0  0  0  0  0  0  0
   33.7500   -7.0061   35.7604 O   0  0  0  0  0  0  0  0  0  0  0  0
   35.0321   -8.6289   34.8386 O   0  0  0  0  0  0  0  0  0  0  0  0
   35.5422   -8.0492   34.2142 H   0  0  0  0  0  0  0  0  0  0  0  0
 44 45  1  0  0  0
 45 42  1  0  0  0
 42 43  1  0  0  0
 42 29  1  0  0  0
 29 30  1  0  0  0
 30 31  1  0  0  0
 31 32  2  0  0  0
 31 34  1  0  0  0
 34 35  1  0  0  0
 35 36  1  0  0  0
 36 37  2  0  0  0
 37 38  1  0  0  0
 38 39  2  0  0  0
 39 40  1  0  0  0
 40 41  2  0  0  0
 29 25  1  0  0  0
 25 26  2  0  0  0
 25 27  1  0  0  0
 27  1  1  0  0  0
  1 46  1  0  0  0
 46 47  1  0  0  0
 47 48  1  0  0  0
 48 49  2  0  0  0
 48 50  1  0  0  0
  1  2  1  0  0  0
  2  3  2  0  0  0
  2  4  1  0  0  0
  4  5  1  0  0  0
  5  6  1  0  0  0
  6  7  1  0  0  0
  7  8  1  0  0  0
  8  9  1  0  0  0
  9 10  2  0  0  0
  9 11  1  0  0  0
 11 13  1  0  0  0
 13 18  1  0  0  0
 18 19  1  0  0  0
 19 20  2  0  0  0
 20 21  1  0  0  0
 21 22  2  0  0  0
 22 23  1  0  0  0
 23 24  2  0  0  0
 13 14  1  0  0  0
 14 15  2  0  0  0
 14 16  1  0  0  0
 16 17  1  0  0  0
 41 36  1  0  0  0
  8  4  1  0  0  0
 24 19  1  0  0  0
 30 33  1  0  0  0
 27 28  1  0  0  0
 50 51  1  0  0  0
 11 12  1  0  0  0
M  END
> <minimizedAffinity>
-7.92421

> <CNNscore>
0.5741261840

> <CNNaffinity>
7.4095931053

> <CNN_VS>
4.2540411949

> <CNNaffinity_variance>
0.0787491798

$$$$
[H]OC(=O)C([H])([H])C([H])([H])[C@@]([H])(C(=O)N1C([H])([H])C([H])([H])C([H])([H])[C@@]1([H])C(=O)N([H])[C@]([H])(C(=O)OC([H])([H])[H])C([H])([H])c1c([H])c([H])c([H])c([H])c1[H])N([H])C(=O)[C@@]([H])(N([H])C(=O)OC([H])([H])c1c([H])c([H])c([H])c([H])c1[H])[C@@]([H])(C([H])([H])[H])C([H])([H])C([H])([H])[H]


 51 53  0  0  0  0  0  0  0  0999 V2000
   31.9694  -10.6884   37.9612 C   0  0  0  0  0  0  0  0  0  0  0  0
   30.6931  -11.3452   37.9408 C   0  0  0  0  0  0  0  0  0  0  0  0
   30.5115  -11.9504   36.7357 O   0  0  0  0  0  0  0  0  0  0  0  0
   29.5942  -11.5499   38.7480 N   0  0  0  0  0  0  0  0  0  0  0  0
   28.4350  -12.3769   38.3060 C   0  0  0  0  0  0  0  0  0  0  0  0
   27.3055  -11.3942   38.5340 C   0  0  0  0  0  0  0  0  0  0  0  0
   27.6981  -10.7282   39.8089 C   0  0  0  0  0  0  0  0  0  0  0  0
   29.1911  -11.0895   40.0236 C   0  0  0  0  0  0  0  0  0  0  0  0
   29.1807  -12.0885   41.1052 C   0  0  0  0  0  0  0  0  0  0  0  0
   30.2387  -12.6209   41.4802 O   0  0  0  0  0  0  0  0  0  0  0  0
   27.9555  -12.4452   41.7190 N   0  0  0  0  0  0  0  0  0  0  0  0
   27.0449  -12.0168   41.4457 H   0  0  0  0  0  0  0  0  0  0  0  0
   27.9547  -13.4646   42.7870 C   0  0  0  0  0  0  0  0  0  0  0  0
   28.3552  -12.8662   44.0661 C   0  0  0  0  0  0  0  0  0  0  0  0
   29.4456  -13.2574   44.6286 O   0  0  0  0  0  0  0  0  0  0  0  0
   27.6662  -11.9042   44.7361 O   0  0  0  0  0  0  0  0  0  0  0  0
   28.1408  -10.5529   44.8417 C   0  0  0  0  0  0  0  0  0  0  0  0
   28.8885  -14.5602   42.3858 C   0  0  0  0  0  0  0  0  0  0  0  0
   28.3142  -15.6643   41.6278 C   0  0  0  0  0  0  0  0  0  0  0  0
   27.6967  -16.6762   42.3597 C   0  0  0  0  0  0  0  0  0  0  0  0
   27.1279  -17.7156   41.6815 C   0  0  0  0  0  0  0  0  0  0  0  0
   27.1428  -17.7978   40.3049 C   0  0  0  0  0  0  0  0  0  0  0  0
   27.7735  -16.7585   39.5976 C   0  0  0  0  0  0  0  0  0  0  0  0
   28.3449  -15.7184   40.2579 C   0  0  0  0  0  0  0  0  0  0  0  0
   33.3208  -12.8383   38.1268 C   0  0  0  0  0  0  0  0  0  0  0  0
   32.9391  -12.8707   39.3548 O   0  0  0  0  0  0  0  0  0  0  0  0
   32.8739  -11.7669   37.3518 N   0  0  0  0  0  0  0  0  0  0  0  0
   33.1335  -11.6558   36.3547 H   0  0  0  0  0  0  0  0  0  0  0  0
   34.1802  -13.9249   37.7036 C   0  0  0  0  0  0  0  0  0  0  0  0
   33.6753  -14.6228   36.5494 N   0  0  0  0  0  0  0  0  0  0  0  0
   33.9453  -15.9186   36.0935 C   0  0  0  0  0  0  0  0  0  0  0  0
   34.7033  -16.7726   36.5894 O   0  0  0  0  0  0  0  0  0  0  0  0
   32.9760  -14.0683   35.9293 H   0  0  0  0  0  0  0  0  0  0  0  0
   33.2997  -16.3730   34.9103 O   0  0  0  0  0  0  0  0  0  0  0  0
   33.7010  -17.5449   34.2491 C   0  0  0  0  0  0  0  0  0  0  0  0
   32.8494  -18.7051   34.4821 C   0  0  0  0  0  0  0  0  0  0  0  0
   33.2371  -19.9517   34.0014 C   0  0  0  0  0  0  0  0  0  0  0  0
   32.4861  -21.0850   34.1772 C   0  0  0  0  0  0  0  0  0  0  0  0
   31.2780  -21.0091   34.8644 C   0  0  0  0  0  0  0  0  0  0  0  0
   30.8841  -19.7742   35.3464 C   0  0  0  0  0  0  0  0  0  0  0  0
   31.6537  -18.6422   35.1602 C   0  0  0  0  0  0  0  0  0  0  0  0
   35.6315  -13.5741   37.4611 C   0  0  0  0  0  0  0  0  0  0  0  0
   36.5872  -14.7233   37.7473 C   0  0  0  0  0  0  0  0  0  0  0  0
   35.8883  -11.8202   35.6688 C   0  0  0  0  0  0  0  0  0  0  0  0
   35.7799  -13.3027   35.9691 C   0  0  0  0  0  0  0  0  0  0  0  0
   32.3153   -9.4130   37.3689 C   0  0  0  0  0  0  0  0  0  0  0  0
   33.7489   -9.0191   37.2210 C   0  0  0  0  0  0  0  0  0  0  0  0
   33.9484   -8.1617   35.9950 C   0  0  0  0  0  0  0  0  0  0  0  0
   33.3039   -7.0990   35.8658 O   0  0  0  0  0  0  0  0  0  0  0  0
   34.8383   -8.5110   34.9835 O   0  0  0  0  0  0  0  0  0  0  0  0
   35.3045   -7.8496   34.4079 H   0  0  0  0  0  0  0  0  0  0  0  0
 44 45  1  0  0  0
 45 42  1  0  0  0
 42 43  1  0  0  0
 42 29  1  0  0  0
 29 30  1  0  0  0
 30 31  1  0  0  0
 31 32  2  0  0  0
 31 34  1  0  0  0
 34 35  1  0  0  0
 35 36  1  0  0  0
 36 37  2  0  0  0
 37 38  1  0  0  0
 38 39  2  0  0  0
 39 40  1  0  0  0
 40 41  2  0  0  0
 29 25  1  0  0  0
 25 26  2  0  0  0
 25 27  1  0  0  0
 27  1  1  0  0  0
  1 46  1  0  0  0
 46 47  1  0  0  0
 47 48  1  0  0  0
 48 49  2  0  0  0
 48 50  1  0  0  0
  1  2  1  0  0  0
  2  3  2  0  0  0
  2  4  1  0  0  0
  4  5  1  0  0  0
  5  6  1  0  0  0
  6  7  1  0  0  0
  7  8  1  0  0  0
  8  9  1  0  0  0
  9 10  2  0  0  0
  9 11  1  0  0  0
 11 13  1  0  0  0
 13 18  1  0  0  0
 18 19  1  0  0  0
 19 20  2  0  0  0
 20 21  1  0  0  0
 21 22  2  0  0  0
 22 23  1  0  0  0
 23 24  2  0  0  0
 13 14  1  0  0  0
 14 15  2  0  0  0
 14 16  1  0  0  0
 16 17  1  0  0  0
 41 36  1  0  0  0
  8  4  1  0  0  0
 24 19  1  0  0  0
 30 33  1  0  0  0
 27 28  1  0  0  0
 50 51  1  0  0  0
 11 12  1  0  0  0
M  END
> <minimizedAffinity>
-7.50166

> <CNNscore>
0.5692878366

> <CNNaffinity>
7.3260231018

> <CNN_VS>
4.1706156731

> <CNNaffinity_variance>
0.0831630901

$$$$
[H]OC(=O)C([H])([H])C([H])([H])[C@@]([H])(C(=O)N1C([H])([H])C([H])([H])C([H])([H])[C@@]1([H])C(=O)N([H])[C@]([H])(C(=O)OC([H])([H])[H])C([H])([H])c1c([H])c([H])c([H])c([H])c1[H])N([H])C(=O)[C@@]([H])(N([H])C(=O)OC([H])([H])c1c([H])c([H])c([H])c([H])c1[H])[C@@]([H])(C([H])([H])[H])C([H])([H])C([H])([H])[H]


 51 53  0  0  0  0  0  0  0  0999 V2000
   31.6481  -10.4637   37.9376 C   0  0  0  0  0  0  0  0  0  0  0  0
   30.4439  -11.2449   37.9282 C   0  0  0  0  0  0  0  0  0  0  0  0
   30.5122  -12.1753   36.9377 O   0  0  0  0  0  0  0  0  0  0  0  0
   29.2418  -11.3462   38.5959 N   0  0  0  0  0  0  0  0  0  0  0  0
   28.2360  -12.3923   38.2535 C   0  0  0  0  0  0  0  0  0  0  0  0
   27.0170  -11.5235   38.0240 C   0  0  0  0  0  0  0  0  0  0  0  0
   27.1398  -10.4912   39.0928 C   0  0  0  0  0  0  0  0  0  0  0  0
   28.5970  -10.6027   39.6123 C   0  0  0  0  0  0  0  0  0  0  0  0
   28.4753  -11.2595   40.9245 C   0  0  0  0  0  0  0  0  0  0  0  0
   28.4805  -10.5857   41.9683 O   0  0  0  0  0  0  0  0  0  0  0  0
   28.3542  -12.6685   40.9953 N   0  0  0  0  0  0  0  0  0  0  0  0
   28.3335  -13.2737   40.1463 H   0  0  0  0  0  0  0  0  0  0  0  0
   28.2555  -13.3177   42.3176 C   0  0  0  0  0  0  0  0  0  0  0  0
   29.4554  -14.1198   42.5850 C   0  0  0  0  0  0  0  0  0  0  0  0
   30.0452  -14.0074   43.7242 O   0  0  0  0  0  0  0  0  0  0  0  0
   30.0223  -15.0023   41.7196 O   0  0  0  0  0  0  0  0  0  0  0  0
   29.2848  -16.0892   41.1389 C   0  0  0  0  0  0  0  0  0  0  0  0
   27.0243  -14.1646   42.3300 C   0  0  0  0  0  0  0  0  0  0  0  0
   26.6109  -14.6989   43.6211 C   0  0  0  0  0  0  0  0  0  0  0  0
   26.2818  -16.0519   43.6660 C   0  0  0  0  0  0  0  0  0  0  0  0
   25.9114  -16.5921   44.8638 C   0  0  0  0  0  0  0  0  0  0  0  0
   25.8526  -15.8493   46.0244 C   0  0  0  0  0  0  0  0  0  0  0  0
   26.1926  -14.4868   45.9430 C   0  0  0  0  0  0  0  0  0  0  0  0
   26.5619  -13.9346   44.7585 C   0  0  0  0  0  0  0  0  0  0  0  0
   33.1859  -12.4830   38.1206 C   0  0  0  0  0  0  0  0  0  0  0  0
   32.7904  -12.5531   39.3427 O   0  0  0  0  0  0  0  0  0  0  0  0
   32.6554  -11.4543   37.3405 N   0  0  0  0  0  0  0  0  0  0  0  0
   32.9188  -11.3175   36.3475 H   0  0  0  0  0  0  0  0  0  0  0  0
   34.1462  -13.4863   37.7090 C   0  0  0  0  0  0  0  0  0  0  0  0
   33.6621  -14.3214   36.6402 N   0  0  0  0  0  0  0  0  0  0  0  0
   34.0385  -15.6188   36.2726 C   0  0  0  0  0  0  0  0  0  0  0  0
   34.8985  -16.3531   36.7929 O   0  0  0  0  0  0  0  0  0  0  0  0
   32.8844  -13.8887   36.0165 H   0  0  0  0  0  0  0  0  0  0  0  0
   33.3890  -16.2282   35.1635 O   0  0  0  0  0  0  0  0  0  0  0  0
   33.9340  -17.3416   34.5043 C   0  0  0  0  0  0  0  0  0  0  0  0
   33.1439  -18.5629   34.6034 C   0  0  0  0  0  0  0  0  0  0  0  0
   32.1657  -18.6726   35.5864 C   0  0  0  0  0  0  0  0  0  0  0  0
   31.3886  -19.7909   35.7433 C   0  0  0  0  0  0  0  0  0  0  0  0
   31.5687  -20.8777   34.8925 C   0  0  0  0  0  0  0  0  0  0  0  0
   32.5386  -20.7782   33.9118 C   0  0  0  0  0  0  0  0  0  0  0  0
   33.3127  -19.6431   33.7679 C   0  0  0  0  0  0  0  0  0  0  0  0
   35.5247  -12.9822   37.3433 C   0  0  0  0  0  0  0  0  0  0  0  0
   36.6111  -14.0391   37.4807 C   0  0  0  0  0  0  0  0  0  0  0  0
   35.6482  -11.1531   35.6131 C   0  0  0  0  0  0  0  0  0  0  0  0
   35.4942  -12.6417   35.8585 C   0  0  0  0  0  0  0  0  0  0  0  0
   31.8644   -9.1680   37.3281 C   0  0  0  0  0  0  0  0  0  0  0  0
   33.2535   -8.6907   37.0541 C   0  0  0  0  0  0  0  0  0  0  0  0
   33.2804   -7.7673   35.8606 C   0  0  0  0  0  0  0  0  0  0  0  0
   34.2345   -6.9752   35.7063 O   0  0  0  0  0  0  0  0  0  0  0  0
   32.2683   -7.7620   34.9052 O   0  0  0  0  0  0  0  0  0  0  0  0
   32.4112   -7.5174   33.9534 H   0  0  0  0  0  0  0  0  0  0  0  0
 44 45  1  0  0  0
 45 42  1  0  0  0
 42 43  1  0  0  0
 42 29  1  0  0  0
 29 30  1  0  0  0
 30 31  1  0  0  0
 31 32  2  0  0  0
 31 34  1  0  0  0
 34 35  1  0  0  0
 35 36  1  0  0  0
 36 37  2  0  0  0
 37 38  1  0  0  0
 38 39  2  0  0  0
 39 40  1  0  0  0
 40 41  2  0  0  0
 29 25  1  0  0  0
 25 26  2  0  0  0
 25 27  1  0  0  0
 27  1  1  0  0  0
  1 46  1  0  0  0
 46 47  1  0  0  0
 47 48  1  0  0  0
 48 49  2  0  0  0
 48 50  1  0  0  0
  1  2  1  0  0  0
  2  3  2  0  0  0
  2  4  1  0  0  0
  4  5  1  0  0  0
  5  6  1  0  0  0
  6  7  1  0  0  0
  7  8  1  0  0  0
  8  9  1  0  0  0
  9 10  2  0  0  0
  9 11  1  0  0  0
 11 13  1  0  0  0
 13 18  1  0  0  0
 18 19  1  0  0  0
 19 20  2  0  0  0
 20 21  1  0  0  0
 21 22  2  0  0  0
 22 23  1  0  0  0
 23 24  2  0  0  0
 13 14  1  0  0  0
 14 15  2  0  0  0
 14 16  1  0  0  0
 16 17  1  0  0  0
 41 36  1  0  0  0
  8  4  1  0  0  0
 24 19  1  0  0  0
 30 33  1  0  0  0
 27 28  1  0  0  0
 50 51  1  0  0  0
 11 12  1  0  0  0
M  END
> <minimizedAffinity>
-7.71522

> <CNNscore>
0.3660582602

> <CNNaffinity>
7.0815253258

> <CNN_VS>
2.5922508240

> <CNNaffinity_variance>
0.0761525854

$$$$
[H]OC(=O)C([H])([H])C([H])([H])[C@@]([H])(C(=O)N1C([H])([H])C([H])([H])C([H])([H])[C@@]1([H])C(=O)N([H])[C@]([H])(C(=O)OC([H])([H])[H])C([H])([H])c1c([H])c([H])c([H])c([H])c1[H])N([H])C(=O)[C@@]([H])(N([H])C(=O)OC([H])([H])c1c([H])c([H])c([H])c([H])c1[H])[C@@]([H])(C([H])([H])[H])C([H])([H])C([H])([H])[H]


 51 53  0  0  0  0  0  0  0  0999 V2000
   34.0479  -14.3307   36.4473 C   0  0  0  0  0  0  0  0  0  0  0  0
   32.8737  -13.5063   36.4950 C   0  0  0  0  0  0  0  0  0  0  0  0
   32.2632  -13.5122   35.2790 O   0  0  0  0  0  0  0  0  0  0  0  0
   32.1755  -12.7073   37.3755 N   0  0  0  0  0  0  0  0  0  0  0  0
   30.9083  -12.0252   36.9856 C   0  0  0  0  0  0  0  0  0  0  0  0
   31.2522  -10.5966   37.3524 C   0  0  0  0  0  0  0  0  0  0  0  0
   32.0140  -10.7552   38.6242 C   0  0  0  0  0  0  0  0  0  0  0  0
   32.3857  -12.2591   38.7009 C   0  0  0  0  0  0  0  0  0  0  0  0
   31.4874  -12.8128   39.7277 C   0  0  0  0  0  0  0  0  0  0  0  0
   31.7879  -12.7420   40.9311 O   0  0  0  0  0  0  0  0  0  0  0  0
   30.2747  -13.4320   39.3390 N   0  0  0  0  0  0  0  0  0  0  0  0
   29.9754  -13.5044   38.3427 H   0  0  0  0  0  0  0  0  0  0  0  0
   29.3927  -14.0036   40.3760 C   0  0  0  0  0  0  0  0  0  0  0  0
   29.2375  -15.4494   40.1758 C   0  0  0  0  0  0  0  0  0  0  0  0
   28.4300  -15.8747   39.2673 O   0  0  0  0  0  0  0  0  0  0  0  0
   29.8876  -16.4163   40.8770 O   0  0  0  0  0  0  0  0  0  0  0  0
   29.4398  -16.8612   42.1670 C   0  0  0  0  0  0  0  0  0  0  0  0
   28.0749  -13.3025   40.3047 C   0  0  0  0  0  0  0  0  0  0  0  0
   28.1103  -11.8465   40.2573 C   0  0  0  0  0  0  0  0  0  0  0  0
   27.8129  -11.2492   39.0343 C   0  0  0  0  0  0  0  0  0  0  0  0
   27.8146   -9.8861   38.9583 C   0  0  0  0  0  0  0  0  0  0  0  0
   28.0982   -9.0845   40.0442 C   0  0  0  0  0  0  0  0  0  0  0  0
   28.3928   -9.7207   41.2636 C   0  0  0  0  0  0  0  0  0  0  0  0
   28.3964  -11.0757   41.3548 C   0  0  0  0  0  0  0  0  0  0  0  0
   34.1295  -16.7427   35.6403 C   0  0  0  0  0  0  0  0  0  0  0  0
   35.0231  -16.9158   36.5493 O   0  0  0  0  0  0  0  0  0  0  0  0
   33.5844  -15.4632   35.5225 N   0  0  0  0  0  0  0  0  0  0  0  0
   32.8625  -15.2295   34.8166 H   0  0  0  0  0  0  0  0  0  0  0  0
   33.8059  -17.9078   34.8427 C   0  0  0  0  0  0  0  0  0  0  0  0
   34.8952  -18.8455   34.7514 N   0  0  0  0  0  0  0  0  0  0  0  0
   36.1551  -18.7043   34.1576 C   0  0  0  0  0  0  0  0  0  0  0  0
   36.6229  -17.7194   33.5569 O   0  0  0  0  0  0  0  0  0  0  0  0
   34.7245  -19.8155   35.2108 H   0  0  0  0  0  0  0  0  0  0  0  0
   37.0614  -19.7992   34.2139 O   0  0  0  0  0  0  0  0  0  0  0  0
   38.4136  -19.6621   33.8616 C   0  0  0  0  0  0  0  0  0  0  0  0
   39.3577  -19.8668   34.9536 C   0  0  0  0  0  0  0  0  0  0  0  0
   40.2060  -20.9693   34.9332 C   0  0  0  0  0  0  0  0  0  0  0  0
   41.1145  -21.2293   35.9263 C   0  0  0  0  0  0  0  0  0  0  0  0
   41.2102  -20.3655   37.0135 C   0  0  0  0  0  0  0  0  0  0  0  0
   40.3713  -19.2665   37.0428 C   0  0  0  0  0  0  0  0  0  0  0  0
   39.4615  -19.0196   36.0329 C   0  0  0  0  0  0  0  0  0  0  0  0
   32.5520  -18.6583   35.2333 C   0  0  0  0  0  0  0  0  0  0  0  0
   31.9355  -19.4443   34.0852 C   0  0  0  0  0  0  0  0  0  0  0  0
   32.0921  -20.9504   36.1762 C   0  0  0  0  0  0  0  0  0  0  0  0
   32.9644  -19.7123   36.2535 C   0  0  0  0  0  0  0  0  0  0  0  0
   35.3860  -13.9391   36.0558 C   0  0  0  0  0  0  0  0  0  0  0  0
   36.2199  -13.1016   36.9699 C   0  0  0  0  0  0  0  0  0  0  0  0
   37.1843  -13.9572   37.7546 C   0  0  0  0  0  0  0  0  0  0  0  0
   38.3666  -13.5832   37.9086 O   0  0  0  0  0  0  0  0  0  0  0  0
   36.8042  -15.1680   38.3263 O   0  0  0  0  0  0  0  0  0  0  0  0
   37.2197  -15.5439   39.1461 H   0  0  0  0  0  0  0  0  0  0  0  0
 44 45  1  0  0  0
 45 42  1  0  0  0
 42 43  1  0  0  0
 42 29  1  0  0  0
 29 30  1  0  0  0
 30 31  1  0  0  0
 31 32  2  0  0  0
 31 34  1  0  0  0
 34 35  1  0  0  0
 35 36  1  0  0  0
 36 37  2  0  0  0
 37 38  1  0  0  0
 38 39  2  0  0  0
 39 40  1  0  0  0
 40 41  2  0  0  0
 29 25  1  0  0  0
 25 26  2  0  0  0
 25 27  1  0  0  0
 27  1  1  0  0  0
  1 46  1  0  0  0
 46 47  1  0  0  0
 47 48  1  0  0  0
 48 49  2  0  0  0
 48 50  1  0  0  0
  1  2  1  0  0  0
  2  3  2  0  0  0
  2  4  1  0  0  0
  4  5  1  0  0  0
  5  6  1  0  0  0
  6  7  1  0  0  0
  7  8  1  0  0  0
  8  9  1  0  0  0
  9 10  2  0  0  0
  9 11  1  0  0  0
 11 13  1  0  0  0
 13 18  1  0  0  0
 18 19  1  0  0  0
 19 20  2  0  0  0
 20 21  1  0  0  0
 21 22  2  0  0  0
 22 23  1  0  0  0
 23 24  2  0  0  0
 13 14  1  0  0  0
 14 15  2  0  0  0
 14 16  1  0  0  0
 16 17  1  0  0  0
 41 36  1  0  0  0
  8  4  1  0  0  0
 24 19  1  0  0  0
 30 33  1  0  0  0
 27 28  1  0  0  0
 50 51  1  0  0  0
 11 12  1  0  0  0
M  END
> <minimizedAffinity>
-7.12585

> <CNNscore>
0.1678306460

> <CNNaffinity>
6.4086961746

> <CNN_VS>
1.0755755901

> <CNNaffinity_variance>
0.1849662215

$$$$
[H]OC(=O)C([H])([H])C([H])([H])[C@@]([H])(C(=O)N1C([H])([H])C([H])([H])C([H])([H])[C@@]1([H])C(=O)N([H])[C@]([H])(C(=O)OC([H])([H])[H])C([H])([H])c1c([H])c([H])c([H])c([H])c1[H])N([H])C(=O)[C@@]([H])(N([H])C(=O)OC([H])([H])c1c([H])c([H])c([H])c([H])c1[H])[C@@]([H])(C([H])([H])[H])C([H])([H])C([H])([H])[H]


 51 53  0  0  0  0  0  0  0  0999 V2000
   35.1860  -20.4935   36.7504 C   0  0  0  0  0  0  0  0  0  0  0  0
   35.7533  -19.3924   36.0249 C   0  0  0  0  0  0  0  0  0  0  0  0
   34.7837  -18.4764   35.7558 O   0  0  0  0  0  0  0  0  0  0  0  0
   36.9615  -18.9738   35.5091 N   0  0  0  0  0  0  0  0  0  0  0  0
   37.1104  -17.6623   34.8158 C   0  0  0  0  0  0  0  0  0  0  0  0
   37.7249  -18.1207   33.5098 C   0  0  0  0  0  0  0  0  0  0  0  0
   38.6640  -19.1942   33.9442 C   0  0  0  0  0  0  0  0  0  0  0  0
   38.2521  -19.5428   35.3984 C   0  0  0  0  0  0  0  0  0  0  0  0
   39.3039  -18.9442   36.2370 C   0  0  0  0  0  0  0  0  0  0  0  0
   39.0430  -18.5452   37.3842 O   0  0  0  0  0  0  0  0  0  0  0  0
   40.6203  -18.8209   35.7299 N   0  0  0  0  0  0  0  0  0  0  0  0
   40.8886  -19.1519   34.7781 H   0  0  0  0  0  0  0  0  0  0  0  0
   41.6613  -18.1984   36.5717 C   0  0  0  0  0  0  0  0  0  0  0  0
   42.5642  -17.3833   35.7501 C   0  0  0  0  0  0  0  0  0  0  0  0
   42.8227  -16.1745   36.1112 O   0  0  0  0  0  0  0  0  0  0  0  0
   43.1779  -17.7946   34.6085 O   0  0  0  0  0  0  0  0  0  0  0  0
   44.5981  -17.9927   34.5291 C   0  0  0  0  0  0  0  0  0  0  0  0
   42.4044  -19.2877   37.2750 C   0  0  0  0  0  0  0  0  0  0  0  0
   42.3090  -19.3115   38.7289 C   0  0  0  0  0  0  0  0  0  0  0  0
   41.3707  -20.1790   39.2838 C   0  0  0  0  0  0  0  0  0  0  0  0
   41.2690  -20.2441   40.6437 C   0  0  0  0  0  0  0  0  0  0  0  0
   42.0588  -19.4858   41.4822 C   0  0  0  0  0  0  0  0  0  0  0  0
   42.9963  -18.6216   40.8883 C   0  0  0  0  0  0  0  0  0  0  0  0
   43.1086  -18.5447   39.5370 C   0  0  0  0  0  0  0  0  0  0  0  0
   32.7100  -20.8772   36.3054 C   0  0  0  0  0  0  0  0  0  0  0  0
   32.5325  -20.5159   37.5271 O   0  0  0  0  0  0  0  0  0  0  0  0
   34.0234  -20.8928   35.8331 N   0  0  0  0  0  0  0  0  0  0  0  0
   34.2624  -21.1738   34.8646 H   0  0  0  0  0  0  0  0  0  0  0  0
   31.5127  -21.2321   35.5713 C   0  0  0  0  0  0  0  0  0  0  0  0
   31.0811  -22.5832   35.8214 N   0  0  0  0  0  0  0  0  0  0  0  0
   31.8355  -23.7366   36.0673 C   0  0  0  0  0  0  0  0  0  0  0  0
   33.0735  -23.8567   36.1187 O   0  0  0  0  0  0  0  0  0  0  0  0
   30.0064  -22.7444   35.8219 H   0  0  0  0  0  0  0  0  0  0  0  0
   31.1513  -24.9632   36.2920 O   0  0  0  0  0  0  0  0  0  0  0  0
   30.2742  -25.1363   37.3746 C   0  0  0  0  0  0  0  0  0  0  0  0
   28.8813  -24.8075   37.0966 C   0  0  0  0  0  0  0  0  0  0  0  0
   28.0418  -24.4283   38.1392 C   0  0  0  0  0  0  0  0  0  0  0  0
   26.7211  -24.1104   37.9549 C   0  0  0  0  0  0  0  0  0  0  0  0
   26.1738  -24.1623   36.6761 C   0  0  0  0  0  0  0  0  0  0  0  0
   27.0004  -24.5379   35.6331 C   0  0  0  0  0  0  0  0  0  0  0  0
   28.3295  -24.8548   35.8370 C   0  0  0  0  0  0  0  0  0  0  0  0
   30.3278  -20.3066   35.7369 C   0  0  0  0  0  0  0  0  0  0  0  0
   30.1203  -19.3725   34.5534 C   0  0  0  0  0  0  0  0  0  0  0  0
   28.2116  -20.8889   36.9766 C   0  0  0  0  0  0  0  0  0  0  0  0
   29.0810  -21.1819   35.7691 C   0  0  0  0  0  0  0  0  0  0  0  0
   35.8562  -21.6993   37.1908 C   0  0  0  0  0  0  0  0  0  0  0  0
   36.8561  -21.6393   38.2994 C   0  0  0  0  0  0  0  0  0  0  0  0
   36.2084  -21.9506   39.6266 C   0  0  0  0  0  0  0  0  0  0  0  0
   35.9700  -23.1362   39.9412 O   0  0  0  0  0  0  0  0  0  0  0  0
   35.8600  -20.9534   40.5330 O   0  0  0  0  0  0  0  0  0  0  0  0
   35.8315  -21.0890   41.5163 H   0  0  0  0  0  0  0  0  0  0  0  0
 44 45  1  0  0  0
 45 42  1  0  0  0
 42 43  1  0  0  0
 42 29  1  0  0  0
 29 30  1  0  0  0
 30 31  1  0  0  0
 31 32  2  0  0  0
 31 34  1  0  0  0
 34 35  1  0  0  0
 35 36  1  0  0  0
 36 37  2  0  0  0
 37 38  1  0  0  0
 38 39  2  0  0  0
 39 40  1  0  0  0
 40 41  2  0  0  0
 29 25  1  0  0  0
 25 26  2  0  0  0
 25 27  1  0  0  0
 27  1  1  0  0  0
  1 46  1  0  0  0
 46 47  1  0  0  0
 47 48  1  0  0  0
 48 49  2  0  0  0
 48 50  1  0  0  0
  1  2  1  0  0  0
  2  3  2  0  0  0
  2  4  1  0  0  0
  4  5  1  0  0  0
  5  6  1  0  0  0
  6  7  1  0  0  0
  7  8  1  0  0  0
  8  9  1  0  0  0
  9 10  2  0  0  0
  9 11  1  0  0  0
 11 13  1  0  0  0
 13 18  1  0  0  0
 18 19  1  0  0  0
 19 20  2  0  0  0
 20 21  1  0  0  0
 21 22  2  0  0  0
 22 23  1  0  0  0
 23 24  2  0  0  0
 13 14  1  0  0  0
 14 15  2  0  0  0
 14 16  1  0  0  0
 16 17  1  0  0  0
 41 36  1  0  0  0
  8  4  1  0  0  0
 24 19  1  0  0  0
 30 33  1  0  0  0
 27 28  1  0  0  0
 50 51  1  0  0  0
 11 12  1  0  0  0
M  END
> <minimizedAffinity>
-5.54174

> <CNNscore>
0.1623889059

> <CNNaffinity>
5.5645298958

> <CNN_VS>
0.9036179185

> <CNNaffinity_variance>
0.1391872913

$$$$
[H]OC(=O)C([H])([H])C([H])([H])[C@@]([H])(C(=O)N1C([H])([H])C([H])([H])C([H])([H])[C@@]1([H])C(=O)N([H])[C@]([H])(C(=O)OC([H])([H])[H])C([H])([H])c1c([H])c([H])c([H])c([H])c1[H])N([H])C(=O)[C@@]([H])(N([H])C(=O)OC([H])([H])c1c([H])c([H])c([H])c([H])c1[H])[C@@]([H])(C([H])([H])[H])C([H])([H])C([H])([H])[H]


 51 53  0  0  0  0  0  0  0  0999 V2000
   33.1632  -23.0069   36.6886 C   0  0  0  0  0  0  0  0  0  0  0  0
   32.5245  -21.7390   36.4763 C   0  0  0  0  0  0  0  0  0  0  0  0
   31.5104  -21.5845   37.3704 O   0  0  0  0  0  0  0  0  0  0  0  0
   32.6065  -20.6363   35.6526 N   0  0  0  0  0  0  0  0  0  0  0  0
   31.7077  -19.4587   35.8207 C   0  0  0  0  0  0  0  0  0  0  0  0
   31.1433  -19.3534   34.4193 C   0  0  0  0  0  0  0  0  0  0  0  0
   32.3237  -19.6628   33.5625 C   0  0  0  0  0  0  0  0  0  0  0  0
   33.3735  -20.2938   34.5142 C   0  0  0  0  0  0  0  0  0  0  0  0
   34.3863  -19.2416   34.7015 C   0  0  0  0  0  0  0  0  0  0  0  0
   34.4125  -18.2526   33.9502 O   0  0  0  0  0  0  0  0  0  0  0  0
   35.3373  -19.3608   35.7438 N   0  0  0  0  0  0  0  0  0  0  0  0
   35.3469  -20.1666   36.4057 H   0  0  0  0  0  0  0  0  0  0  0  0
   36.3620  -18.3106   35.9078 C   0  0  0  0  0  0  0  0  0  0  0  0
   37.7016  -18.9076   35.9688 C   0  0  0  0  0  0  0  0  0  0  0  0
   38.1626  -19.3016   37.1049 O   0  0  0  0  0  0  0  0  0  0  0  0
   38.5299  -19.0950   34.9068 O   0  0  0  0  0  0  0  0  0  0  0  0
   38.3495  -18.4032   33.6613 C   0  0  0  0  0  0  0  0  0  0  0  0
   36.0518  -17.5480   37.1549 C   0  0  0  0  0  0  0  0  0  0  0  0
   35.9770  -16.0978   37.0333 C   0  0  0  0  0  0  0  0  0  0  0  0
   37.0201  -15.3645   37.5947 C   0  0  0  0  0  0  0  0  0  0  0  0
   36.9946  -14.0044   37.4804 C   0  0  0  0  0  0  0  0  0  0  0  0
   35.9783  -13.3349   36.8315 C   0  0  0  0  0  0  0  0  0  0  0  0
   34.9420  -14.1064   36.2753 C   0  0  0  0  0  0  0  0  0  0  0  0
   34.9525  -15.4602   36.3818 C   0  0  0  0  0  0  0  0  0  0  0  0
   34.7817  -22.3137   38.5260 C   0  0  0  0  0  0  0  0  0  0  0  0
   35.5278  -21.8791   37.5726 O   0  0  0  0  0  0  0  0  0  0  0  0
   33.5669  -22.8984   38.1644 N   0  0  0  0  0  0  0  0  0  0  0  0
   32.9038  -23.2798   38.8635 H   0  0  0  0  0  0  0  0  0  0  0  0
   35.3065  -22.1455   39.8656 C   0  0  0  0  0  0  0  0  0  0  0  0
   36.5528  -21.4244   39.8936 N   0  0  0  0  0  0  0  0  0  0  0  0
   37.8470  -21.8774   40.1763 C   0  0  0  0  0  0  0  0  0  0  0  0
   38.2168  -23.0266   40.4802 O   0  0  0  0  0  0  0  0  0  0  0  0
   36.4919  -20.3647   39.6608 H   0  0  0  0  0  0  0  0  0  0  0  0
   38.9207  -20.9457   40.1286 O   0  0  0  0  0  0  0  0  0  0  0  0
   40.1028  -21.2112   39.4191 C   0  0  0  0  0  0  0  0  0  0  0  0
   41.1996  -20.2877   39.6833 C   0  0  0  0  0  0  0  0  0  0  0  0
   41.9521  -19.7910   38.6239 C   0  0  0  0  0  0  0  0  0  0  0  0
   43.0003  -18.9244   38.7959 C   0  0  0  0  0  0  0  0  0  0  0  0
   43.3453  -18.5092   40.0789 C   0  0  0  0  0  0  0  0  0  0  0  0
   42.6030  -18.9974   41.1386 C   0  0  0  0  0  0  0  0  0  0  0  0
   41.5494  -19.8702   40.9469 C   0  0  0  0  0  0  0  0  0  0  0  0
   34.3676  -21.5296   40.8792 C   0  0  0  0  0  0  0  0  0  0  0  0
   34.5903  -22.0375   42.2964 C   0  0  0  0  0  0  0  0  0  0  0  0
   34.6250  -19.5027   42.3555 C   0  0  0  0  0  0  0  0  0  0  0  0
   34.6926  -20.0422   40.9399 C   0  0  0  0  0  0  0  0  0  0  0  0
   32.6066  -24.3245   36.4623 C   0  0  0  0  0  0  0  0  0  0  0  0
   32.0126  -25.0928   37.5977 C   0  0  0  0  0  0  0  0  0  0  0  0
   30.5170  -24.8992   37.6553 C   0  0  0  0  0  0  0  0  0  0  0  0
   29.7624  -25.6861   37.0446 O   0  0  0  0  0  0  0  0  0  0  0  0
   29.9315  -23.8617   38.3751 O   0  0  0  0  0  0  0  0  0  0  0  0
   29.0270  -23.9158   38.7815 H   0  0  0  0  0  0  0  0  0  0  0  0
 44 45  1  0  0  0
 45 42  1  0  0  0
 42 43  1  0  0  0
 42 29  1  0  0  0
 29 30  1  0  0  0
 30 31  1  0  0  0
 31 32  2  0  0  0
 31 34  1  0  0  0
 34 35  1  0  0  0
 35 36  1  0  0  0
 36 37  2  0  0  0
 37 38  1  0  0  0
 38 39  2  0  0  0
 39 40  1  0  0  0
 40 41  2  0  0  0
 29 25  1  0  0  0
 25 26  2  0  0  0
 25 27  1  0  0  0
 27  1  1  0  0  0
  1 46  1  0  0  0
 46 47  1  0  0  0
 47 48  1  0  0  0
 48 49  2  0  0  0
 48 50  1  0  0  0
  1  2  1  0  0  0
  2  3  2  0  0  0
  2  4  1  0  0  0
  4  5  1  0  0  0
  5  6  1  0  0  0
  6  7  1  0  0  0
  7  8  1  0  0  0
  8  9  1  0  0  0
  9 10  2  0  0  0
  9 11  1  0  0  0
 11 13  1  0  0  0
 13 18  1  0  0  0
 18 19  1  0  0  0
 19 20  2  0  0  0
 20 21  1  0  0  0
 21 22  2  0  0  0
 22 23  1  0  0  0
 23 24  2  0  0  0
 13 14  1  0  0  0
 14 15  2  0  0  0
 14 16  1  0  0  0
 16 17  1  0  0  0
 41 36  1  0  0  0
  8  4  1  0  0  0
 24 19  1  0  0  0
 30 33  1  0  0  0
 27 28  1  0  0  0
 50 51  1  0  0  0
 11 12  1  0  0  0
M  END
> <minimizedAffinity>
-6.18596

> <CNNscore>
0.1260654926

> <CNNaffinity>
5.8035860062

> <CNN_VS>
0.7316319346

> <CNNaffinity_variance>
0.5619131327

$$$$
[H]Oc1c([H])c([H])c([H])c(C2([H])C([H])([H])N(C([H])([H])C([H])([H])C([H])([H])C([H])([H])C([H])([H])C([H])([H])C([H])([H])C([H])([H])C([H])([H])[H])C([H])([H])C2([H])[H])c1[H]


 22 23  0  0  0  0  0  0  0  0999 V2000
   34.6418  -18.1860   34.2762 N   0  0  0  0  0  0  0  0  0  0  0  0
   33.6303  -17.3883   34.9139 C   0  0  0  0  0  0  0  0  0  0  0  0
   32.3106  -18.0640   34.6379 C   0  0  0  0  0  0  0  0  0  0  0  0
   32.6895  -19.3842   34.0327 C   0  0  0  0  0  0  0  0  0  0  0  0
   34.1257  -19.5607   34.3573 C   0  0  0  0  0  0  0  0  0  0  0  0
   31.8401  -20.4938   34.5493 C   0  0  0  0  0  0  0  0  0  0  0  0
   32.2831  -21.7874   34.3804 C   0  0  0  0  0  0  0  0  0  0  0  0
   31.5263  -22.8659   34.8506 C   0  0  0  0  0  0  0  0  0  0  0  0
   30.3312  -22.6069   35.4846 C   0  0  0  0  0  0  0  0  0  0  0  0
   29.9119  -21.3126   35.6404 C   0  0  0  0  0  0  0  0  0  0  0  0
   28.7071  -21.0761   36.2808 O   0  0  0  0  0  0  0  0  0  0  0  0
   30.6540  -20.2246   35.1775 C   0  0  0  0  0  0  0  0  0  0  0  0
   28.1330  -21.8370   36.6330 H   0  0  0  0  0  0  0  0  0  0  0  0
   35.9370  -18.1020   34.8652 C   0  0  0  0  0  0  0  0  0  0  0  0
   36.0150  -18.5536   36.2886 C   0  0  0  0  0  0  0  0  0  0  0  0
   36.3424  -17.4741   37.2586 C   0  0  0  0  0  0  0  0  0  0  0  0
   36.6915  -16.1485   36.6688 C   0  0  0  0  0  0  0  0  0  0  0  0
   36.8283  -15.0628   37.7664 C   0  0  0  0  0  0  0  0  0  0  0  0
   35.9707  -13.8992   37.4544 C   0  0  0  0  0  0  0  0  0  0  0  0
   35.0509  -13.9528   36.3134 C   0  0  0  0  0  0  0  0  0  0  0  0
   32.9528  -12.8865   37.0563 C   0  0  0  0  0  0  0  0  0  0  0  0
   33.5916  -14.1213   36.5281 C   0  0  0  0  0  0  0  0  0  0  0  0
 21 22  1  0  0  0
 22 20  1  0  0  0
 20 19  1  0  0  0
 19 18  1  0  0  0
 18 17  1  0  0  0
 17 16  1  0  0  0
 16 15  1  0  0  0
 15 14  1  0  0  0
 14  1  1  0  0  0
  1  2  1  0  0  0
  2  3  1  0  0  0
  3  4  1  0  0  0
  4  6  1  0  0  0
  6  7  2  0  0  0
  7  8  1  0  0  0
  8  9  2  0  0  0
  9 10  1  0  0  0
 10 11  1  0  0  0
 10 12  2  0  0  0
  4  5  1  0  0  0
  5  1  1  0  0  0
 12  6  1  0  0  0
 11 13  1  0  0  0
M  END
> <minimizedAffinity>
-5.63335

> <CNNscore>
0.5430639386

> <CNNaffinity>
4.8265523911

> <CNN_VS>
2.6211266518

> <CNNaffinity_variance>
0.6024314165

$$$$
[H]Oc1c([H])c([H])c([H])c(C2([H])C([H])([H])N(C([H])([H])C([H])([H])C([H])([H])C([H])([H])C([H])([H])C([H])([H])C([H])([H])C([H])([H])C([H])([H])[H])C([H])([H])C2([H])[H])c1[H]


 22 23  0  0  0  0  0  0  0  0999 V2000
   37.5923  -19.6004   35.2853 N   0  0  0  0  0  0  0  0  0  0  0  0
   37.6177  -18.8188   34.0792 C   0  0  0  0  0  0  0  0  0  0  0  0
   36.4805  -17.8335   34.1799 C   0  0  0  0  0  0  0  0  0  0  0  0
   36.0014  -17.9638   35.5963 C   0  0  0  0  0  0  0  0  0  0  0  0
   37.0914  -18.6720   36.3100 C   0  0  0  0  0  0  0  0  0  0  0  0
   35.6837  -16.6380   36.1972 C   0  0  0  0  0  0  0  0  0  0  0  0
   36.6083  -16.0674   37.0443 C   0  0  0  0  0  0  0  0  0  0  0  0
   36.3618  -14.8219   37.6318 C   0  0  0  0  0  0  0  0  0  0  0  0
   35.1772  -14.1800   37.3455 C   0  0  0  0  0  0  0  0  0  0  0  0
   34.2738  -14.7675   36.5006 C   0  0  0  0  0  0  0  0  0  0  0  0
   33.0895  -14.1039   36.2272 O   0  0  0  0  0  0  0  0  0  0  0  0
   34.5031  -16.0094   35.9057 C   0  0  0  0  0  0  0  0  0  0  0  0
   32.8793  -13.1987   36.6384 H   0  0  0  0  0  0  0  0  0  0  0  0
   38.8490  -20.1473   35.6766 C   0  0  0  0  0  0  0  0  0  0  0  0
   39.3621  -19.6712   36.9980 C   0  0  0  0  0  0  0  0  0  0  0  0
   39.7334  -20.7600   37.9414 C   0  0  0  0  0  0  0  0  0  0  0  0
   38.8275  -20.9482   39.1123 C   0  0  0  0  0  0  0  0  0  0  0  0
   39.4287  -21.9468   40.1339 C   0  0  0  0  0  0  0  0  0  0  0  0
   40.7239  -21.4490   40.6448 C   0  0  0  0  0  0  0  0  0  0  0  0
   40.8402  -20.0672   41.1223 C   0  0  0  0  0  0  0  0  0  0  0  0
   43.0494  -18.9932   40.8836 C   0  0  0  0  0  0  0  0  0  0  0  0
   42.0700  -19.6103   41.8173 C   0  0  0  0  0  0  0  0  0  0  0  0
 21 22  1  0  0  0
 22 20  1  0  0  0
 20 19  1  0  0  0
 19 18  1  0  0  0
 18 17  1  0  0  0
 17 16  1  0  0  0
 16 15  1  0  0  0
 15 14  1  0  0  0
 14  1  1  0  0  0
  1  2  1  0  0  0
  2  3  1  0  0  0
  3  4  1  0  0  0
  4  6  1  0  0  0
  6  7  2  0  0  0
  7  8  1  0  0  0
  8  9  2  0  0  0
  9 10  1  0  0  0
 10 11  1  0  0  0
 10 12  2  0  0  0
  4  5  1  0  0  0
  5  1  1  0  0  0
 12  6  1  0  0  0
 11 13  1  0  0  0
M  END
> <minimizedAffinity>
-5.04108

> <CNNscore>
0.5367312431

> <CNNaffinity>
4.4847526550

> <CNN_VS>
2.4071068764

> <CNNaffinity_variance>
0.4372547269

$$$$
[H]Oc1c([H])c([H])c([H])c(C2([H])C([H])([H])N(C([H])([H])C([H])([H])C([H])([H])C([H])([H])C([H])([H])C([H])([H])C([H])([H])C([H])([H])C([H])([H])[H])C([H])([H])C2([H])[H])c1[H]


 22 23  0  0  0  0  0  0  0  0999 V2000
   34.8416  -18.8141   35.6208 N   0  0  0  0  0  0  0  0  0  0  0  0
   35.3199  -18.7375   36.9742 C   0  0  0  0  0  0  0  0  0  0  0  0
   35.8982  -17.3558   37.1496 C   0  0  0  0  0  0  0  0  0  0  0  0
   35.4878  -16.6215   35.9065 C   0  0  0  0  0  0  0  0  0  0  0  0
   34.4072  -17.4437   35.3104 C   0  0  0  0  0  0  0  0  0  0  0  0
   35.0550  -15.2275   36.2048 C   0  0  0  0  0  0  0  0  0  0  0  0
   35.9870  -14.3499   36.7141 C   0  0  0  0  0  0  0  0  0  0  0  0
   35.6343  -13.0283   37.0074 C   0  0  0  0  0  0  0  0  0  0  0  0
   34.3378  -12.6244   36.7765 C   0  0  0  0  0  0  0  0  0  0  0  0
   33.4294  -13.5151   36.2699 C   0  0  0  0  0  0  0  0  0  0  0  0
   32.1317  -13.0870   36.0459 O   0  0  0  0  0  0  0  0  0  0  0  0
   33.7637  -14.8373   35.9716 C   0  0  0  0  0  0  0  0  0  0  0  0
   31.8427  -12.1342   36.2493 H   0  0  0  0  0  0  0  0  0  0  0  0
   33.7765  -19.7371   35.4084 C   0  0  0  0  0  0  0  0  0  0  0  0
   32.4240  -19.2469   35.8163 C   0  0  0  0  0  0  0  0  0  0  0  0
   31.4887  -19.0111   34.6835 C   0  0  0  0  0  0  0  0  0  0  0  0
   30.4259  -20.0401   34.4876 C   0  0  0  0  0  0  0  0  0  0  0  0
   29.4929  -20.1275   35.7222 C   0  0  0  0  0  0  0  0  0  0  0  0
   28.9371  -21.4912   35.8564 C   0  0  0  0  0  0  0  0  0  0  0  0
   29.7771  -22.6565   35.5611 C   0  0  0  0  0  0  0  0  0  0  0  0
   30.4864  -22.8805   37.9143 C   0  0  0  0  0  0  0  0  0  0  0  0
   30.8669  -23.0548   36.4872 C   0  0  0  0  0  0  0  0  0  0  0  0
 21 22  1  0  0  0
 22 20  1  0  0  0
 20 19  1  0  0  0
 19 18  1  0  0  0
 18 17  1  0  0  0
 17 16  1  0  0  0
 16 15  1  0  0  0
 15 14  1  0  0  0
 14  1  1  0  0  0
  1  2  1  0  0  0
  2  3  1  0  0  0
  3  4  1  0  0  0
  4  6  1  0  0  0
  6  7  2  0  0  0
  7  8  1  0  0  0
  8  9  2  0  0  0
  9 10  1  0  0  0
 10 11  1  0  0  0
 10 12  2  0  0  0
  4  5  1  0  0  0
  5  1  1  0  0  0
 12  6  1  0  0  0
 11 13  1  0  0  0
M  END
> <minimizedAffinity>
-5.71770

> <CNNscore>
0.5345365405

> <CNNaffinity>
4.8940057755

> <CNN_VS>
2.6160249710

> <CNNaffinity_variance>
0.6340425611

$$$$
[H]Oc1c([H])c([H])c([H])c(C2([H])C([H])([H])N(C([H])([H])C([H])([H])C([H])([H])C([H])([H])C([H])([H])C([H])([H])C([H])([H])C([H])([H])C([H])([H])[H])C([H])([H])C2([H])[H])c1[H]


 22 23  0  0  0  0  0  0  0  0999 V2000
   36.6043  -18.4504   34.9521 N   0  0  0  0  0  0  0  0  0  0  0  0
   35.3645  -18.4310   34.2250 C   0  0  0  0  0  0  0  0  0  0  0  0
   34.4226  -17.5462   35.0022 C   0  0  0  0  0  0  0  0  0  0  0  0
   35.2919  -16.9034   36.0433 C   0  0  0  0  0  0  0  0  0  0  0  0
   36.6819  -17.1202   35.5744 C   0  0  0  0  0  0  0  0  0  0  0  0
   34.9624  -15.4621   36.2264 C   0  0  0  0  0  0  0  0  0  0  0  0
   35.9645  -14.6110   36.6381 C   0  0  0  0  0  0  0  0  0  0  0  0
   35.7098  -13.2476   36.8210 C   0  0  0  0  0  0  0  0  0  0  0  0
   34.4381  -12.7757   36.5811 C   0  0  0  0  0  0  0  0  0  0  0  0
   33.4587  -13.6413   36.1727 C   0  0  0  0  0  0  0  0  0  0  0  0
   32.1876  -13.1447   35.9376 O   0  0  0  0  0  0  0  0  0  0  0  0
   33.6949  -15.0044   35.9853 C   0  0  0  0  0  0  0  0  0  0  0  0
   31.9693  -12.1601   36.0621 H   0  0  0  0  0  0  0  0  0  0  0  0
   37.7635  -18.7018   34.1619 C   0  0  0  0  0  0  0  0  0  0  0  0
   38.9903  -19.0645   34.9361 C   0  0  0  0  0  0  0  0  0  0  0  0
   39.1242  -20.5168   35.2301 C   0  0  0  0  0  0  0  0  0  0  0  0
   40.4963  -21.0879   35.0948 C   0  0  0  0  0  0  0  0  0  0  0  0
   40.4769  -22.4152   34.2946 C   0  0  0  0  0  0  0  0  0  0  0  0
   39.1276  -23.0194   34.3254 C   0  0  0  0  0  0  0  0  0  0  0  0
   38.8928  -24.2475   35.0918 C   0  0  0  0  0  0  0  0  0  0  0  0
   36.9455  -25.6329   35.7079 C   0  0  0  0  0  0  0  0  0  0  0  0
   37.8947  -25.2452   34.6307 C   0  0  0  0  0  0  0  0  0  0  0  0
 21 22  1  0  0  0
 22 20  1  0  0  0
 20 19  1  0  0  0
 19 18  1  0  0  0
 18 17  1  0  0  0
 17 16  1  0  0  0
 16 15  1  0  0  0
 15 14  1  0  0  0
 14  1  1  0  0  0
  1  2  1  0  0  0
  2  3  1  0  0  0
  3  4  1  0  0  0
  4  6  1  0  0  0
  6  7  2  0  0  0
  7  8  1  0  0  0
  8  9  2  0  0  0
  9 10  1  0  0  0
 10 11  1  0  0  0
 10 12  2  0  0  0
  4  5  1  0  0  0
  5  1  1  0  0  0
 12  6  1  0  0  0
 11 13  1  0  0  0
M  END
> <minimizedAffinity>
-5.17425

> <CNNscore>
0.5278871655

> <CNNaffinity>
4.7999181747

> <CNN_VS>
2.5338151455

> <CNNaffinity_variance>
0.0770568699

$$$$
[H]Oc1c([H])c([H])c([H])c(C2([H])C([H])([H])N(C([H])([H])C([H])([H])C([H])([H])C([H])([H])C([H])([H])C([H])([H])C([H])([H])C([H])([H])C([H])([H])[H])C([H])([H])C2([H])[H])c1[H]


 22 23  0  0  0  0  0  0  0  0999 V2000
   33.2202  -18.9160   34.5961 N   0  0  0  0  0  0  0  0  0  0  0  0
   33.5899  -19.4007   35.8979 C   0  0  0  0  0  0  0  0  0  0  0  0
   34.7650  -18.5704   36.3495 C   0  0  0  0  0  0  0  0  0  0  0  0
   34.8492  -17.4655   35.3371 C   0  0  0  0  0  0  0  0  0  0  0  0
   33.5419  -17.4816   34.6372 C   0  0  0  0  0  0  0  0  0  0  0  0
   35.1469  -16.1523   35.9746 C   0  0  0  0  0  0  0  0  0  0  0  0
   34.1105  -15.2610   36.1469 C   0  0  0  0  0  0  0  0  0  0  0  0
   34.3346  -14.0160   36.7441 C   0  0  0  0  0  0  0  0  0  0  0  0
   35.6110  -13.7013   37.1552 C   0  0  0  0  0  0  0  0  0  0  0  0
   36.6247  -14.6038   36.9730 C   0  0  0  0  0  0  0  0  0  0  0  0
   37.9000  -14.2659   37.3940 O   0  0  0  0  0  0  0  0  0  0  0  0
   36.4194  -15.8503   36.3790 C   0  0  0  0  0  0  0  0  0  0  0  0
   38.0966  -13.3694   37.8303 H   0  0  0  0  0  0  0  0  0  0  0  0
   31.8530  -19.1126   34.2448 C   0  0  0  0  0  0  0  0  0  0  0  0
   31.2396  -20.3711   34.7700 C   0  0  0  0  0  0  0  0  0  0  0  0
   29.9858  -20.1668   35.5445 C   0  0  0  0  0  0  0  0  0  0  0  0
   29.1031  -21.3614   35.6874 C   0  0  0  0  0  0  0  0  0  0  0  0
   29.9312  -22.6444   35.9526 C   0  0  0  0  0  0  0  0  0  0  0  0
   30.3785  -22.6908   37.3613 C   0  0  0  0  0  0  0  0  0  0  0  0
   31.8097  -22.6397   37.6770 C   0  0  0  0  0  0  0  0  0  0  0  0
   34.2037  -22.8298   37.1081 C   0  0  0  0  0  0  0  0  0  0  0  0
   32.8113  -23.1903   36.7295 C   0  0  0  0  0  0  0  0  0  0  0  0
 21 22  1  0  0  0
 22 20  1  0  0  0
 20 19  1  0  0  0
 19 18  1  0  0  0
 18 17  1  0  0  0
 17 16  1  0  0  0
 16 15  1  0  0  0
 15 14  1  0  0  0
 14  1  1  0  0  0
  1  2  1  0  0  0
  2  3  1  0  0  0
  3  4  1  0  0  0
  4  6  1  0  0  0
  6  7  2  0  0  0
  7  8  1  0  0  0
  8  9  2  0  0  0
  9 10  1  0  0  0
 10 11  1  0  0  0
 10 12  2  0  0  0
  4  5  1  0  0  0
  5  1  1  0  0  0
 12  6  1  0  0  0
 11 13  1  0  0  0
M  END
> <minimizedAffinity>
-5.08766

> <CNNscore>
0.5264587402

> <CNNaffinity>
4.6947746277

> <CNN_VS>
2.4716050625

> <CNNaffinity_variance>
0.7393808365

$$$$
[H]Oc1c([H])c([H])c([H])c(C2([H])C([H])([H])N(C([H])([H])C([H])([H])C([H])([H])C([H])([H])C([H])([H])C([H])([H])C([H])([H])C([H])([H])C([H])([H])[H])C([H])([H])C2([H])[H])c1[H]


 22 23  0  0  0  0  0  0  0  0999 V2000
   36.5269  -18.2840   34.6313 N   0  0  0  0  0  0  0  0  0  0  0  0
   35.1462  -18.3757   34.2419 C   0  0  0  0  0  0  0  0  0  0  0  0
   34.3646  -17.5407   35.2248 C   0  0  0  0  0  0  0  0  0  0  0  0
   35.4155  -16.8071   36.0061 C   0  0  0  0  0  0  0  0  0  0  0  0
   36.6550  -16.9347   35.2021 C   0  0  0  0  0  0  0  0  0  0  0  0
   35.0315  -15.3892   36.2543 C   0  0  0  0  0  0  0  0  0  0  0  0
   35.9804  -14.5383   36.7774 C   0  0  0  0  0  0  0  0  0  0  0  0
   35.6735  -13.1962   37.0254 C   0  0  0  0  0  0  0  0  0  0  0  0
   34.4047  -12.7449   36.7359 C   0  0  0  0  0  0  0  0  0  0  0  0
   33.4786  -13.6098   36.2167 C   0  0  0  0  0  0  0  0  0  0  0  0
   32.2094  -13.1340   35.9335 O   0  0  0  0  0  0  0  0  0  0  0  0
   33.7674  -14.9519   35.9631 C   0  0  0  0  0  0  0  0  0  0  0  0
   31.9538  -12.1652   36.1030 H   0  0  0  0  0  0  0  0  0  0  0  0
   37.4655  -18.4719   33.5753 C   0  0  0  0  0  0  0  0  0  0  0  0
   38.7046  -19.2177   33.9557 C   0  0  0  0  0  0  0  0  0  0  0  0
   39.9716  -18.4995   33.6517 C   0  0  0  0  0  0  0  0  0  0  0  0
   41.1775  -19.3557   33.4530 C   0  0  0  0  0  0  0  0  0  0  0  0
   42.3318  -18.9293   34.3953 C   0  0  0  0  0  0  0  0  0  0  0  0
   42.1238  -19.4798   35.7519 C   0  0  0  0  0  0  0  0  0  0  0  0
   41.9678  -18.5730   36.8939 C   0  0  0  0  0  0  0  0  0  0  0  0
   43.2052  -18.4018   39.0224 C   0  0  0  0  0  0  0  0  0  0  0  0
   43.1589  -18.0194   37.5859 C   0  0  0  0  0  0  0  0  0  0  0  0
 21 22  1  0  0  0
 22 20  1  0  0  0
 20 19  1  0  0  0
 19 18  1  0  0  0
 18 17  1  0  0  0
 17 16  1  0  0  0
 16 15  1  0  0  0
 15 14  1  0  0  0
 14  1  1  0  0  0
  1  2  1  0  0  0
  2  3  1  0  0  0
  3  4  1  0  0  0
  4  6  1  0  0  0
  6  7  2  0  0  0
  7  8  1  0  0  0
  8  9  2  0  0  0
  9 10  1  0  0  0
 10 11  1  0  0  0
 10 12  2  0  0  0
  4  5  1  0  0  0
  5  1  1  0  0  0
 12  6  1  0  0  0
 11 13  1  0  0  0
M  END
> <minimizedAffinity>
-5.84309

> <CNNscore>
0.4895205498

> <CNNaffinity>
4.6935167313

> <CNN_VS>
2.2975728512

> <CNNaffinity_variance>
0.3535565138

$$$$
[H]Oc1c([H])c([H])c([H])c(C2([H])C([H])([H])N(C([H])([H])C([H])([H])C([H])([H])C([H])([H])C([H])([H])C([H])([H])C([H])([H])C([H])([H])C([H])([H])[H])C([H])([H])C2([H])[H])c1[H]


 22 23  0  0  0  0  0  0  0  0999 V2000
   36.3331  -19.0168   34.8150 N   0  0  0  0  0  0  0  0  0  0  0  0
   35.1822  -18.7166   34.0079 C   0  0  0  0  0  0  0  0  0  0  0  0
   34.3802  -17.6886   34.7658 C   0  0  0  0  0  0  0  0  0  0  0  0
   35.2782  -17.2775   35.8961 C   0  0  0  0  0  0  0  0  0  0  0  0
   36.6282  -17.7554   35.5112 C   0  0  0  0  0  0  0  0  0  0  0  0
   35.2318  -15.8074   36.1331 C   0  0  0  0  0  0  0  0  0  0  0  0
   34.0051  -15.1809   36.1074 C   0  0  0  0  0  0  0  0  0  0  0  0
   33.9048  -13.8032   36.3281 C   0  0  0  0  0  0  0  0  0  0  0  0
   35.0568  -13.0881   36.5711 C   0  0  0  0  0  0  0  0  0  0  0  0
   36.2646  -13.7332   36.5915 C   0  0  0  0  0  0  0  0  0  0  0  0
   37.4095  -12.9942   36.8376 O   0  0  0  0  0  0  0  0  0  0  0  0
   36.3832  -15.1070   36.3732 C   0  0  0  0  0  0  0  0  0  0  0  0
   37.3714  -11.9919   37.0007 H   0  0  0  0  0  0  0  0  0  0  0  0
   37.4755  -19.4690   34.0925 C   0  0  0  0  0  0  0  0  0  0  0  0
   38.4481  -20.2785   34.8893 C   0  0  0  0  0  0  0  0  0  0  0  0
   39.3804  -21.0993   34.0704 C   0  0  0  0  0  0  0  0  0  0  0  0
   40.8249  -20.7363   34.1626 C   0  0  0  0  0  0  0  0  0  0  0  0
   41.7017  -21.6992   33.3223 C   0  0  0  0  0  0  0  0  0  0  0  0
   41.1855  -23.0820   33.4119 C   0  0  0  0  0  0  0  0  0  0  0  0
   41.5231  -24.0584   32.3709 C   0  0  0  0  0  0  0  0  0  0  0  0
   41.4021  -24.2247   29.9116 C   0  0  0  0  0  0  0  0  0  0  0  0
   42.0960  -23.6126   31.0759 C   0  0  0  0  0  0  0  0  0  0  0  0
 21 22  1  0  0  0
 22 20  1  0  0  0
 20 19  1  0  0  0
 19 18  1  0  0  0
 18 17  1  0  0  0
 17 16  1  0  0  0
 16 15  1  0  0  0
 15 14  1  0  0  0
 14  1  1  0  0  0
  1  2  1  0  0  0
  2  3  1  0  0  0
  3  4  1  0  0  0
  4  6  1  0  0  0
  6  7  2  0  0  0
  7  8  1  0  0  0
  8  9  2  0  0  0
  9 10  1  0  0  0
 10 11  1  0  0  0
 10 12  2  0  0  0
  4  5  1  0  0  0
  5  1  1  0  0  0
 12  6  1  0  0  0
 11 13  1  0  0  0
M  END
> <minimizedAffinity>
-5.09218

> <CNNscore>
0.4820206761

> <CNNaffinity>
4.5232000351

> <CNN_VS>
2.1802759171

> <CNNaffinity_variance>
0.2426915169

$$$$
[H]Oc1c([H])c([H])c([H])c(C2([H])C([H])([H])N(C([H])([H])C([H])([H])C([H])([H])C([H])([H])C([H])([H])C([H])([H])C([H])([H])C([H])([H])C([H])([H])[H])C([H])([H])C2([H])[H])c1[H]


 22 23  0  0  0  0  0  0  0  0999 V2000
   34.7599  -18.3015   33.9564 N   0  0  0  0  0  0  0  0  0  0  0  0
   33.9242  -17.5321   34.8371 C   0  0  0  0  0  0  0  0  0  0  0  0
   32.5630  -18.1810   34.8162 C   0  0  0  0  0  0  0  0  0  0  0  0
   32.7777  -19.4689   34.0757 C   0  0  0  0  0  0  0  0  0  0  0  0
   34.2462  -19.6744   34.0746 C   0  0  0  0  0  0  0  0  0  0  0  0
   32.0369  -20.5985   34.7041 C   0  0  0  0  0  0  0  0  0  0  0  0
   32.2329  -21.8665   34.2023 C   0  0  0  0  0  0  0  0  0  0  0  0
   31.5656  -22.9630   34.7585 C   0  0  0  0  0  0  0  0  0  0  0  0
   30.7101  -22.7477   35.8164 C   0  0  0  0  0  0  0  0  0  0  0  0
   30.5316  -21.4781   36.2976 C   0  0  0  0  0  0  0  0  0  0  0  0
   29.6667  -21.2855   37.3617 O   0  0  0  0  0  0  0  0  0  0  0  0
   31.1890  -20.3727   35.7548 C   0  0  0  0  0  0  0  0  0  0  0  0
   29.1657  -22.0602   37.7877 H   0  0  0  0  0  0  0  0  0  0  0  0
   36.1526  -18.2604   34.2570 C   0  0  0  0  0  0  0  0  0  0  0  0
   36.5505  -17.2379   35.2729 C   0  0  0  0  0  0  0  0  0  0  0  0
   37.0615  -17.8064   36.5493 C   0  0  0  0  0  0  0  0  0  0  0  0
   36.7502  -19.2449   36.7957 C   0  0  0  0  0  0  0  0  0  0  0  0
   35.7982  -19.4151   38.0069 C   0  0  0  0  0  0  0  0  0  0  0  0
   34.5015  -19.9772   37.5720 C   0  0  0  0  0  0  0  0  0  0  0  0
   34.0743  -21.2935   38.0576 C   0  0  0  0  0  0  0  0  0  0  0  0
   34.0367  -23.7592   37.9588 C   0  0  0  0  0  0  0  0  0  0  0  0
   34.2039  -22.4944   37.1944 C   0  0  0  0  0  0  0  0  0  0  0  0
 21 22  1  0  0  0
 22 20  1  0  0  0
 20 19  1  0  0  0
 19 18  1  0  0  0
 18 17  1  0  0  0
 17 16  1  0  0  0
 16 15  1  0  0  0
 15 14  1  0  0  0
 14  1  1  0  0  0
  1  2  1  0  0  0
  2  3  1  0  0  0
  3  4  1  0  0  0
  4  6  1  0  0  0
  6  7  2  0  0  0
  7  8  1  0  0  0
  8  9  2  0  0  0
  9 10  1  0  0  0
 10 11  1  0  0  0
 10 12  2  0  0  0
  4  5  1  0  0  0
  5  1  1  0  0  0
 12  6  1  0  0  0
 11 13  1  0  0  0
M  END
> <minimizedAffinity>
-4.35781

> <CNNscore>
0.4206595719

> <CNNaffinity>
4.3187503815

> <CNN_VS>
1.8167237043

> <CNNaffinity_variance>
1.0756394863

$$$$
[H]Oc1c([H])c([H])c([H])c(C2([H])C([H])([H])N(C([H])([H])C([H])([H])C([H])([H])C([H])([H])C([H])([H])C([H])([H])C([H])([H])C([H])([H])C([H])([H])[H])C([H])([H])C2([H])[H])c1[H]


 22 23  0  0  0  0  0  0  0  0999 V2000
   36.5234  -19.2954   36.0177 N   0  0  0  0  0  0  0  0  0  0  0  0
   36.0678  -18.9422   34.7009 C   0  0  0  0  0  0  0  0  0  0  0  0
   35.1717  -17.7401   34.8626 C   0  0  0  0  0  0  0  0  0  0  0  0
   35.3648  -17.3233   36.2916 C   0  0  0  0  0  0  0  0  0  0  0  0
   36.6021  -18.0121   36.7317 C   0  0  0  0  0  0  0  0  0  0  0  0
   35.4480  -15.8423   36.4296 C   0  0  0  0  0  0  0  0  0  0  0  0
   34.2889  -15.1089   36.2999 C   0  0  0  0  0  0  0  0  0  0  0  0
   34.3106  -13.7157   36.4249 C   0  0  0  0  0  0  0  0  0  0  0  0
   35.5133  -13.0945   36.6798 C   0  0  0  0  0  0  0  0  0  0  0  0
   36.6520  -13.8450   36.8044 C   0  0  0  0  0  0  0  0  0  0  0  0
   37.8498  -13.1991   37.0606 O   0  0  0  0  0  0  0  0  0  0  0  0
   36.6489  -15.2357   36.6826 C   0  0  0  0  0  0  0  0  0  0  0  0
   37.9001  -12.1886   37.1558 H   0  0  0  0  0  0  0  0  0  0  0  0
   37.7781  -19.9703   36.0614 C   0  0  0  0  0  0  0  0  0  0  0  0
   38.9586  -19.0938   36.3339 C   0  0  0  0  0  0  0  0  0  0  0  0
   39.9682  -19.0659   35.2415 C   0  0  0  0  0  0  0  0  0  0  0  0
   41.3966  -19.0275   35.6717 C   0  0  0  0  0  0  0  0  0  0  0  0
   41.5186  -19.0045   37.2166 C   0  0  0  0  0  0  0  0  0  0  0  0
   42.7263  -18.2583   37.6302 C   0  0  0  0  0  0  0  0  0  0  0  0
   43.4520  -18.6537   38.8418 C   0  0  0  0  0  0  0  0  0  0  0  0
   42.2193  -19.0457   40.9436 C   0  0  0  0  0  0  0  0  0  0  0  0
   42.8821  -19.6664   39.7657 C   0  0  0  0  0  0  0  0  0  0  0  0
 21 22  1  0  0  0
 22 20  1  0  0  0
 20 19  1  0  0  0
 19 18  1  0  0  0
 18 17  1  0  0  0
 17 16  1  0  0  0
 16 15  1  0  0  0
 15 14  1  0  0  0
 14  1  1  0  0  0
  1  2  1  0  0  0
  2  3  1  0  0  0
  3  4  1  0  0  0
  4  6  1  0  0  0
  6  7  2  0  0  0
  7  8  1  0  0  0
  8  9  2  0  0  0
  9 10  1  0  0  0
 10 11  1  0  0  0
 10 12  2  0  0  0
  4  5  1  0  0  0
  5  1  1  0  0  0
 12  6  1  0  0  0
 11 13  1  0  0  0
M  END
> <minimizedAffinity>
-5.39434

> <CNNscore>
0.4097399414

> <CNNaffinity>
4.6939802170

> <CNN_VS>
1.9233112335

> <CNNaffinity_variance>
0.5065424442

$$$$
[H]OC(=O)/C([H])=C(\[H])c1c([H])c([H])c(Oc2c(-c3c([H])c([H])c(OC(F)(F)F)c([H])c3C([H])([H])[H])c(=O)oc3c([H])c(OC([H])([H])C([H])([H])[H])c([H])c([H])c23)c([H])c1[H]


 39 42  0  0  0  0  0  0  0  0999 V2000
   31.3323  -21.7733   36.3505 C   0  0  0  0  0  0  0  0  0  0  0  0
   32.5023  -21.7480   35.6317 C   0  0  0  0  0  0  0  0  0  0  0  0
   33.6775  -22.0687   36.2752 C   0  0  0  0  0  0  0  0  0  0  0  0
   33.7140  -22.4121   37.6120 C   0  0  0  0  0  0  0  0  0  0  0  0
   34.9078  -22.7440   38.2753 C   0  0  0  0  0  0  0  0  0  0  0  0
   34.7757  -23.0693   39.6097 C   0  0  0  0  0  0  0  0  0  0  0  0
   33.5574  -23.0785   40.2860 C   0  0  0  0  0  0  0  0  0  0  0  0
   33.4909  -23.3861   41.5157 O   0  0  0  0  0  0  0  0  0  0  0  0
   32.4895  -22.7619   39.6180 O   0  0  0  0  0  0  0  0  0  0  0  0
   32.5483  -22.4407   38.3368 C   0  0  0  0  0  0  0  0  0  0  0  0
   31.3654  -22.1153   37.6803 C   0  0  0  0  0  0  0  0  0  0  0  0
   35.9406  -23.4057   40.4015 C   0  0  0  0  0  0  0  0  0  0  0  0
   36.3735  -24.6979   40.4380 C   0  0  0  0  0  0  0  0  0  0  0  0
   37.4754  -25.0497   41.1756 C   0  0  0  0  0  0  0  0  0  0  0  0
   38.1460  -24.0825   41.8838 C   0  0  0  0  0  0  0  0  0  0  0  0
   37.7079  -22.7709   41.8478 C   0  0  0  0  0  0  0  0  0  0  0  0
   36.6056  -22.4382   41.1058 C   0  0  0  0  0  0  0  0  0  0  0  0
   36.1936  -21.0107   41.1189 C   0  0  0  0  0  0  0  0  0  0  0  0
   39.2704  -24.4415   42.6363 O   0  0  0  0  0  0  0  0  0  0  0  0
   40.5727  -24.4135   42.0626 C   0  0  0  0  0  0  0  0  0  0  0  0
   41.3838  -23.6637   42.8780 F   0  0  0  0  0  0  0  0  0  0  0  0
   41.0589  -25.7040   41.9642 F   0  0  0  0  0  0  0  0  0  0  0  0
   40.5531  -23.8835   40.7812 F   0  0  0  0  0  0  0  0  0  0  0  0
   30.1507  -21.4547   35.7202 O   0  0  0  0  0  0  0  0  0  0  0  0
   29.9972  -19.1349   35.1515 C   0  0  0  0  0  0  0  0  0  0  0  0
   30.0677  -20.5533   34.6334 C   0  0  0  0  0  0  0  0  0  0  0  0
   36.0489  -22.7151   37.5659 O   0  0  0  0  0  0  0  0  0  0  0  0
   37.2057  -22.0287   37.6158 C   0  0  0  0  0  0  0  0  0  0  0  0
   38.4453  -22.5399   37.8963 C   0  0  0  0  0  0  0  0  0  0  0  0
   39.6089  -21.7726   37.9371 C   0  0  0  0  0  0  0  0  0  0  0  0
   39.5536  -20.4053   37.6844 C   0  0  0  0  0  0  0  0  0  0  0  0
   38.3207  -19.8670   37.3998 C   0  0  0  0  0  0  0  0  0  0  0  0
   37.1871  -20.6441   37.3654 C   0  0  0  0  0  0  0  0  0  0  0  0
   40.7782  -19.6258   37.7326 C   0  0  0  0  0  0  0  0  0  0  0  0
   41.7151  -19.7710   38.6474 C   0  0  0  0  0  0  0  0  0  0  0  0
   42.9155  -18.9146   38.5853 C   0  0  0  0  0  0  0  0  0  0  0  0
   43.1215  -18.0099   39.4233 O   0  0  0  0  0  0  0  0  0  0  0  0
   43.8503  -19.0965   37.5864 O   0  0  0  0  0  0  0  0  0  0  0  0
   44.7980  -19.4479   37.7658 H   0  0  0  0  0  0  0  0  0  0  0  0
 25 26  1  0  0  0
 26 24  1  0  0  0
 24  1  1  0  0  0
  1  2  2  0  0  0
  2  3  1  0  0  0
  3  4  2  0  0  0
  4  5  1  0  0  0
  5 27  1  0  0  0
 27 28  1  0  0  0
 28 29  2  0  0  0
 29 30  1  0  0  0
 30 31  2  0  0  0
 31 34  1  0  0  0
 34 35  2  0  0  0
 35 36  1  0  0  0
 36 37  2  0  0  0
 36 38  1  0  0  0
 31 32  1  0  0  0
 32 33  2  0  0  0
  5  6  2  0  0  0
  6 12  1  0  0  0
 12 13  2  0  0  0
 13 14  1  0  0  0
 14 15  2  0  0  0
 15 19  1  0  0  0
 19 20  1  0  0  0
 20 21  1  0  0  0
 20 22  1  0  0  0
 20 23  1  0  0  0
 15 16  1  0  0  0
 16 17  2  0  0  0
 17 18  1  0  0  0
  6  7  1  0  0  0
  7  8  2  0  0  0
  7  9  1  0  0  0
  9 10  1  0  0  0
 10 11  2  0  0  0
 11  1  1  0  0  0
 10  4  1  0  0  0
 33 28  1  0  0  0
 17 12  1  0  0  0
 38 39  1  0  0  0
M  END
> <minimizedAffinity>
-2.99281

> <CNNscore>
0.4893891811

> <CNNaffinity>
5.9399404526

> <CNN_VS>
2.9069426060

> <CNNaffinity_variance>
0.7758462429

$$$$
[H]OC(=O)/C([H])=C(\[H])c1c([H])c([H])c(Oc2c(-c3c([H])c([H])c(OC(F)(F)F)c([H])c3C([H])([H])[H])c(=O)oc3c([H])c(OC([H])([H])C([H])([H])[H])c([H])c([H])c23)c([H])c1[H]


 39 42  0  0  0  0  0  0  0  0999 V2000
   30.6826  -22.4201   36.8923 C   0  0  0  0  0  0  0  0  0  0  0  0
   31.6783  -22.6735   35.9809 C   0  0  0  0  0  0  0  0  0  0  0  0
   32.9158  -23.0589   36.4478 C   0  0  0  0  0  0  0  0  0  0  0  0
   33.1831  -23.1967   37.7954 C   0  0  0  0  0  0  0  0  0  0  0  0
   34.4415  -23.5927   38.2801 C   0  0  0  0  0  0  0  0  0  0  0  0
   34.5464  -23.6889   39.6526 C   0  0  0  0  0  0  0  0  0  0  0  0
   33.4970  -23.4192   40.5287 C   0  0  0  0  0  0  0  0  0  0  0  0
   33.6465  -23.5233   41.7849 O   0  0  0  0  0  0  0  0  0  0  0  0
   32.3584  -23.0570   40.0194 O   0  0  0  0  0  0  0  0  0  0  0  0
   32.1925  -22.9462   38.7123 C   0  0  0  0  0  0  0  0  0  0  0  0
   30.9453  -22.5571   38.2333 C   0  0  0  0  0  0  0  0  0  0  0  0
   35.8022  -24.0655   40.2677 C   0  0  0  0  0  0  0  0  0  0  0  0
   35.9804  -25.3490   40.6912 C   0  0  0  0  0  0  0  0  0  0  0  0
   37.1588  -25.7395   41.2750 C   0  0  0  0  0  0  0  0  0  0  0  0
   38.1675  -24.8203   41.4316 C   0  0  0  0  0  0  0  0  0  0  0  0
   37.9881  -23.5176   41.0023 C   0  0  0  0  0  0  0  0  0  0  0  0
   36.8045  -23.1458   40.4216 C   0  0  0  0  0  0  0  0  0  0  0  0
   36.6848  -21.7293   39.9892 C   0  0  0  0  0  0  0  0  0  0  0  0
   39.3699  -25.2188   42.0272 O   0  0  0  0  0  0  0  0  0  0  0  0
   40.0786  -24.3443   42.8983 C   0  0  0  0  0  0  0  0  0  0  0  0
   40.8741  -25.1073   43.7168 F   0  0  0  0  0  0  0  0  0  0  0  0
   40.8562  -23.4808   42.1491 F   0  0  0  0  0  0  0  0  0  0  0  0
   39.2133  -23.5669   43.6535 F   0  0  0  0  0  0  0  0  0  0  0  0
   29.4412  -22.0338   36.4396 O   0  0  0  0  0  0  0  0  0  0  0  0
   30.0408  -19.9928   35.3427 C   0  0  0  0  0  0  0  0  0  0  0  0
   29.2444  -21.2752   35.2621 C   0  0  0  0  0  0  0  0  0  0  0  0
   35.4114  -23.8370   37.3824 O   0  0  0  0  0  0  0  0  0  0  0  0
   36.3210  -23.1048   36.7127 C   0  0  0  0  0  0  0  0  0  0  0  0
   36.1523  -21.8307   36.2387 C   0  0  0  0  0  0  0  0  0  0  0  0
   37.1357  -21.1250   35.5461 C   0  0  0  0  0  0  0  0  0  0  0  0
   38.3740  -21.7105   35.3008 C   0  0  0  0  0  0  0  0  0  0  0  0
   38.5692  -22.9894   35.7667 C   0  0  0  0  0  0  0  0  0  0  0  0
   37.5841  -23.6652   36.4471 C   0  0  0  0  0  0  0  0  0  0  0  0
   39.3832  -20.9569   34.5773 C   0  0  0  0  0  0  0  0  0  0  0  0
   39.7758  -19.7416   34.9006 C   0  0  0  0  0  0  0  0  0  0  0  0
   40.8123  -19.0825   34.0823 C   0  0  0  0  0  0  0  0  0  0  0  0
   42.0046  -19.4579   34.1047 O   0  0  0  0  0  0  0  0  0  0  0  0
   40.4830  -18.0222   33.2626 O   0  0  0  0  0  0  0  0  0  0  0  0
   40.5072  -18.0800   32.2380 H   0  0  0  0  0  0  0  0  0  0  0  0
 25 26  1  0  0  0
 26 24  1  0  0  0
 24  1  1  0  0  0
  1  2  2  0  0  0
  2  3  1  0  0  0
  3  4  2  0  0  0
  4  5  1  0  0  0
  5 27  1  0  0  0
 27 28  1  0  0  0
 28 29  2  0  0  0
 29 30  1  0  0  0
 30 31  2  0  0  0
 31 34  1  0  0  0
 34 35  2  0  0  0
 35 36  1  0  0  0
 36 37  2  0  0  0
 36 38  1  0  0  0
 31 32  1  0  0  0
 32 33  2  0  0  0
  5  6  2  0  0  0
  6 12  1  0  0  0
 12 13  2  0  0  0
 13 14  1  0  0  0
 14 15  2  0  0  0
 15 19  1  0  0  0
 19 20  1  0  0  0
 20 21  1  0  0  0
 20 22  1  0  0  0
 20 23  1  0  0  0
 15 16  1  0  0  0
 16 17  2  0  0  0
 17 18  1  0  0  0
  6  7  1  0  0  0
  7  8  2  0  0  0
  7  9  1  0  0  0
  9 10  1  0  0  0
 10 11  2  0  0  0
 11  1  1  0  0  0
 10  4  1  0  0  0
 33 28  1  0  0  0
 17 12  1  0  0  0
 38 39  1  0  0  0
M  END
> <minimizedAffinity>
-1.47530

> <CNNscore>
0.4443106651

> <CNNaffinity>
5.9847850800

> <CNN_VS>
2.6591038704

> <CNNaffinity_variance>
1.1786187887

$$$$
[H]OC(=O)/C([H])=C(\[H])c1c([H])c([H])c(Oc2c(-c3c([H])c([H])c(OC(F)(F)F)c([H])c3C([H])([H])[H])c(=O)oc3c([H])c(OC([H])([H])C([H])([H])[H])c([H])c([H])c23)c([H])c1[H]


 39 42  0  0  0  0  0  0  0  0999 V2000
   32.4760  -21.0833   36.4734 C   0  0  0  0  0  0  0  0  0  0  0  0
   33.7527  -21.5225   36.2213 C   0  0  0  0  0  0  0  0  0  0  0  0
   34.7739  -20.5981   36.1952 C   0  0  0  0  0  0  0  0  0  0  0  0
   34.5537  -19.2526   36.4130 C   0  0  0  0  0  0  0  0  0  0  0  0
   35.5900  -18.3035   36.3917 C   0  0  0  0  0  0  0  0  0  0  0  0
   35.2073  -17.0000   36.6332 C   0  0  0  0  0  0  0  0  0  0  0  0
   33.8920  -16.6147   36.8849 C   0  0  0  0  0  0  0  0  0  0  0  0
   33.5932  -15.4002   37.1015 O   0  0  0  0  0  0  0  0  0  0  0  0
   32.9791  -17.5384   36.8908 O   0  0  0  0  0  0  0  0  0  0  0  0
   33.2804  -18.8063   36.6668 C   0  0  0  0  0  0  0  0  0  0  0  0
   32.2541  -19.7456   36.6912 C   0  0  0  0  0  0  0  0  0  0  0  0
   36.1856  -15.9325   36.6131 C   0  0  0  0  0  0  0  0  0  0  0  0
   37.2319  -15.9683   37.4863 C   0  0  0  0  0  0  0  0  0  0  0  0
   38.1778  -14.9747   37.4914 C   0  0  0  0  0  0  0  0  0  0  0  0
   38.0628  -13.9337   36.6026 C   0  0  0  0  0  0  0  0  0  0  0  0
   37.0017  -13.8960   35.7160 C   0  0  0  0  0  0  0  0  0  0  0  0
   36.0667  -14.8970   35.7255 C   0  0  0  0  0  0  0  0  0  0  0  0
   34.9545  -14.7858   34.7466 C   0  0  0  0  0  0  0  0  0  0  0  0
   39.0281  -12.9200   36.6078 O   0  0  0  0  0  0  0  0  0  0  0  0
   38.6929  -11.5942   37.0026 C   0  0  0  0  0  0  0  0  0  0  0  0
   39.8589  -10.8869   37.1609 F   0  0  0  0  0  0  0  0  0  0  0  0
   37.9096  -11.0083   36.0256 F   0  0  0  0  0  0  0  0  0  0  0  0
   37.9580  -11.5838   38.1787 F   0  0  0  0  0  0  0  0  0  0  0  0
   31.4459  -21.9961   36.5020 O   0  0  0  0  0  0  0  0  0  0  0  0
   30.3700  -23.8747   35.4815 C   0  0  0  0  0  0  0  0  0  0  0  0
   31.6096  -23.3635   36.1795 C   0  0  0  0  0  0  0  0  0  0  0  0
   36.8362  -18.7405   36.1424 O   0  0  0  0  0  0  0  0  0  0  0  0
   37.6849  -19.6238   36.7007 C   0  0  0  0  0  0  0  0  0  0  0  0
   38.2743  -20.6925   36.0787 C   0  0  0  0  0  0  0  0  0  0  0  0
   39.1444  -21.5767   36.7157 C   0  0  0  0  0  0  0  0  0  0  0  0
   39.4597  -21.4002   38.0595 C   0  0  0  0  0  0  0  0  0  0  0  0
   38.8813  -20.3342   38.7073 C   0  0  0  0  0  0  0  0  0  0  0  0
   38.0261  -19.4758   38.0578 C   0  0  0  0  0  0  0  0  0  0  0  0
   40.3681  -22.3335   38.7025 C   0  0  0  0  0  0  0  0  0  0  0  0
   40.0556  -23.0735   39.7467 C   0  0  0  0  0  0  0  0  0  0  0  0
   41.0715  -23.9852   40.3083 C   0  0  0  0  0  0  0  0  0  0  0  0
   40.7541  -25.0502   40.8811 O   0  0  0  0  0  0  0  0  0  0  0  0
   42.4134  -23.6774   40.2117 O   0  0  0  0  0  0  0  0  0  0  0  0
   43.0683  -24.2118   39.6293 H   0  0  0  0  0  0  0  0  0  0  0  0
 25 26  1  0  0  0
 26 24  1  0  0  0
 24  1  1  0  0  0
  1  2  2  0  0  0
  2  3  1  0  0  0
  3  4  2  0  0  0
  4  5  1  0  0  0
  5 27  1  0  0  0
 27 28  1  0  0  0
 28 29  2  0  0  0
 29 30  1  0  0  0
 30 31  2  0  0  0
 31 34  1  0  0  0
 34 35  2  0  0  0
 35 36  1  0  0  0
 36 37  2  0  0  0
 36 38  1  0  0  0
 31 32  1  0  0  0
 32 33  2  0  0  0
  5  6  2  0  0  0
  6 12  1  0  0  0
 12 13  2  0  0  0
 13 14  1  0  0  0
 14 15  2  0  0  0
 15 19  1  0  0  0
 19 20  1  0  0  0
 20 21  1  0  0  0
 20 22  1  0  0  0
 20 23  1  0  0  0
 15 16  1  0  0  0
 16 17  2  0  0  0
 17 18  1  0  0  0
  6  7  1  0  0  0
  7  8  2  0  0  0
  7  9  1  0  0  0
  9 10  1  0  0  0
 10 11  2  0  0  0
 11  1  1  0  0  0
 10  4  1  0  0  0
 33 28  1  0  0  0
 17 12  1  0  0  0
 38 39  1  0  0  0
M  END
> <minimizedAffinity>
10.46537

> <CNNscore>
0.4426244795

> <CNNaffinity>
5.9982209206

> <CNN_VS>
2.6549594402

> <CNNaffinity_variance>
1.4360643625

$$$$
[H]OC(=O)/C([H])=C(\[H])c1c([H])c([H])c(Oc2c(-c3c([H])c([H])c(OC(F)(F)F)c([H])c3C([H])([H])[H])c(=O)oc3c([H])c(OC([H])([H])C([H])([H])[H])c([H])c([H])c23)c([H])c1[H]


 39 42  0  0  0  0  0  0  0  0999 V2000
   31.2952  -22.0924   36.0216 C   0  0  0  0  0  0  0  0  0  0  0  0
   32.2227  -21.2996   35.3912 C   0  0  0  0  0  0  0  0  0  0  0  0
   33.4822  -21.1962   35.9397 C   0  0  0  0  0  0  0  0  0  0  0  0
   33.8374  -21.8610   37.0965 C   0  0  0  0  0  0  0  0  0  0  0  0
   35.1209  -21.7639   37.6608 C   0  0  0  0  0  0  0  0  0  0  0  0
   35.3195  -22.4934   38.8151 C   0  0  0  0  0  0  0  0  0  0  0  0
   34.3370  -23.2833   39.4087 C   0  0  0  0  0  0  0  0  0  0  0  0
   34.5720  -23.9356   40.4719 O   0  0  0  0  0  0  0  0  0  0  0  0
   33.1705  -23.3316   38.8396 O   0  0  0  0  0  0  0  0  0  0  0  0
   32.9160  -22.6562   37.7317 C   0  0  0  0  0  0  0  0  0  0  0  0
   31.6459  -22.7556   37.1721 C   0  0  0  0  0  0  0  0  0  0  0  0
   36.5955  -22.4520   39.4987 C   0  0  0  0  0  0  0  0  0  0  0  0
   36.8488  -21.4436   40.3805 C   0  0  0  0  0  0  0  0  0  0  0  0
   38.0460  -21.3768   41.0470 C   0  0  0  0  0  0  0  0  0  0  0  0
   38.9967  -22.3414   40.8180 C   0  0  0  0  0  0  0  0  0  0  0  0
   38.7411  -23.3651   39.9234 C   0  0  0  0  0  0  0  0  0  0  0  0
   37.5399  -23.4155   39.2669 C   0  0  0  0  0  0  0  0  0  0  0  0
   37.3398  -24.5424   38.3194 C   0  0  0  0  0  0  0  0  0  0  0  0
   40.2183  -22.2731   41.4982 O   0  0  0  0  0  0  0  0  0  0  0  0
   41.3480  -21.6388   40.9090 C   0  0  0  0  0  0  0  0  0  0  0  0
   40.9266  -20.4699   40.3249 F   0  0  0  0  0  0  0  0  0  0  0  0
   42.2864  -21.3703   41.8882 F   0  0  0  0  0  0  0  0  0  0  0  0
   41.9580  -22.4561   39.9691 F   0  0  0  0  0  0  0  0  0  0  0  0
   30.0326  -22.2045   35.4847 O   0  0  0  0  0  0  0  0  0  0  0  0
   29.9336  -24.4793   34.7472 C   0  0  0  0  0  0  0  0  0  0  0  0
   29.2621  -23.3889   35.5506 C   0  0  0  0  0  0  0  0  0  0  0  0
   36.0225  -20.9846   37.0394 O   0  0  0  0  0  0  0  0  0  0  0  0
   37.3599  -20.9798   36.8866 C   0  0  0  0  0  0  0  0  0  0  0  0
   38.1036  -21.8937   36.1880 C   0  0  0  0  0  0  0  0  0  0  0  0
   39.4920  -21.8355   36.0704 C   0  0  0  0  0  0  0  0  0  0  0  0
   40.2025  -20.8069   36.6815 C   0  0  0  0  0  0  0  0  0  0  0  0
   39.4792  -19.8757   37.3890 C   0  0  0  0  0  0  0  0  0  0  0  0
   38.1104  -19.9543   37.4908 C   0  0  0  0  0  0  0  0  0  0  0  0
   41.6481  -20.7664   36.5458 C   0  0  0  0  0  0  0  0  0  0  0  0
   42.3713  -21.7320   36.0166 C   0  0  0  0  0  0  0  0  0  0  0  0
   43.8359  -21.5682   35.9365 C   0  0  0  0  0  0  0  0  0  0  0  0
   44.5835  -21.8615   36.8947 O   0  0  0  0  0  0  0  0  0  0  0  0
   44.4206  -21.0807   34.7853 O   0  0  0  0  0  0  0  0  0  0  0  0
   45.0150  -21.6536   34.1752 H   0  0  0  0  0  0  0  0  0  0  0  0
 25 26  1  0  0  0
 26 24  1  0  0  0
 24  1  1  0  0  0
  1  2  2  0  0  0
  2  3  1  0  0  0
  3  4  2  0  0  0
  4  5  1  0  0  0
  5 27  1  0  0  0
 27 28  1  0  0  0
 28 29  2  0  0  0
 29 30  1  0  0  0
 30 31  2  0  0  0
 31 34  1  0  0  0
 34 35  2  0  0  0
 35 36  1  0  0  0
 36 37  2  0  0  0
 36 38  1  0  0  0
 31 32  1  0  0  0
 32 33  2  0  0  0
  5  6  2  0  0  0
  6 12  1  0  0  0
 12 13  2  0  0  0
 13 14  1  0  0  0
 14 15  2  0  0  0
 15 19  1  0  0  0
 19 20  1  0  0  0
 20 21  1  0  0  0
 20 22  1  0  0  0
 20 23  1  0  0  0
 15 16  1  0  0  0
 16 17  2  0  0  0
 17 18  1  0  0  0
  6  7  1  0  0  0
  7  8  2  0  0  0
  7  9  1  0  0  0
  9 10  1  0  0  0
 10 11  2  0  0  0
 11  1  1  0  0  0
 10  4  1  0  0  0
 33 28  1  0  0  0
 17 12  1  0  0  0
 38 39  1  0  0  0
M  END
> <minimizedAffinity>
-3.30520

> <CNNscore>
0.4364172220

> <CNNaffinity>
5.8056468964

> <CNN_VS>
2.5336842537

> <CNNaffinity_variance>
0.3323482573

$$$$
[H]OC(=O)/C([H])=C(\[H])c1c([H])c([H])c(Oc2c(-c3c([H])c([H])c(OC(F)(F)F)c([H])c3C([H])([H])[H])c(=O)oc3c([H])c(OC([H])([H])C([H])([H])[H])c([H])c([H])c23)c([H])c1[H]


 39 42  0  0  0  0  0  0  0  0999 V2000
   36.5470  -14.4887   36.9311 C   0  0  0  0  0  0  0  0  0  0  0  0
   37.5056  -15.4679   36.8394 C   0  0  0  0  0  0  0  0  0  0  0  0
   37.1076  -16.7532   36.5434 C   0  0  0  0  0  0  0  0  0  0  0  0
   35.7830  -17.0840   36.3380 C   0  0  0  0  0  0  0  0  0  0  0  0
   35.3687  -18.3918   36.0322 C   0  0  0  0  0  0  0  0  0  0  0  0
   34.0110  -18.5581   35.8507 C   0  0  0  0  0  0  0  0  0  0  0  0
   33.0847  -17.5224   35.9559 C   0  0  0  0  0  0  0  0  0  0  0  0
   31.8449  -17.7294   35.7789 O   0  0  0  0  0  0  0  0  0  0  0  0
   33.5297  -16.3361   36.2413 O   0  0  0  0  0  0  0  0  0  0  0  0
   34.8193  -16.1103   36.4269 C   0  0  0  0  0  0  0  0  0  0  0  0
   35.2286  -14.8146   36.7266 C   0  0  0  0  0  0  0  0  0  0  0  0
   33.4653  -19.8664   35.5548 C   0  0  0  0  0  0  0  0  0  0  0  0
   33.1123  -20.1690   34.2733 C   0  0  0  0  0  0  0  0  0  0  0  0
   32.5954  -21.4001   33.9585 C   0  0  0  0  0  0  0  0  0  0  0  0
   32.4343  -22.3347   34.9521 C   0  0  0  0  0  0  0  0  0  0  0  0
   32.7921  -22.0292   36.2529 C   0  0  0  0  0  0  0  0  0  0  0  0
   33.3065  -20.7945   36.5486 C   0  0  0  0  0  0  0  0  0  0  0  0
   33.6642  -20.5389   37.9679 C   0  0  0  0  0  0  0  0  0  0  0  0
   31.9070  -23.5910   34.6307 O   0  0  0  0  0  0  0  0  0  0  0  0
   32.2244  -24.7379   35.4115 C   0  0  0  0  0  0  0  0  0  0  0  0
   31.7458  -25.8465   34.7582 F   0  0  0  0  0  0  0  0  0  0  0  0
   33.5962  -24.8276   35.5590 F   0  0  0  0  0  0  0  0  0  0  0  0
   31.6794  -24.6542   36.6840 F   0  0  0  0  0  0  0  0  0  0  0  0
   36.9305  -13.2000   37.2267 O   0  0  0  0  0  0  0  0  0  0  0  0
   34.9342  -12.4906   36.1133 C   0  0  0  0  0  0  0  0  0  0  0  0
   36.1772  -12.0608   36.8585 C   0  0  0  0  0  0  0  0  0  0  0  0
   36.3122  -19.3450   35.9461 O   0  0  0  0  0  0  0  0  0  0  0  0
   36.8729  -20.2345   36.7867 C   0  0  0  0  0  0  0  0  0  0  0  0
   37.6908  -19.9493   37.8479 C   0  0  0  0  0  0  0  0  0  0  0  0
   38.2454  -20.9200   38.6815 C   0  0  0  0  0  0  0  0  0  0  0  0
   37.9788  -22.2675   38.4589 C   0  0  0  0  0  0  0  0  0  0  0  0
   37.1599  -22.5807   37.3996 C   0  0  0  0  0  0  0  0  0  0  0  0
   36.6248  -21.6057   36.5914 C   0  0  0  0  0  0  0  0  0  0  0  0
   38.5675  -23.2611   39.3397 C   0  0  0  0  0  0  0  0  0  0  0  0
   39.7638  -23.7867   39.1713 C   0  0  0  0  0  0  0  0  0  0  0  0
   40.2480  -24.7899   40.1396 C   0  0  0  0  0  0  0  0  0  0  0  0
   41.3798  -24.7046   40.6638 O   0  0  0  0  0  0  0  0  0  0  0  0
   39.4502  -25.8593   40.4926 O   0  0  0  0  0  0  0  0  0  0  0  0
   39.0486  -25.9706   41.4307 H   0  0  0  0  0  0  0  0  0  0  0  0
 25 26  1  0  0  0
 26 24  1  0  0  0
 24  1  1  0  0  0
  1  2  2  0  0  0
  2  3  1  0  0  0
  3  4  2  0  0  0
  4  5  1  0  0  0
  5 27  1  0  0  0
 27 28  1  0  0  0
 28 29  2  0  0  0
 29 30  1  0  0  0
 30 31  2  0  0  0
 31 34  1  0  0  0
 34 35  2  0  0  0
 35 36  1  0  0  0
 36 37  2  0  0  0
 36 38  1  0  0  0
 31 32  1  0  0  0
 32 33  2  0  0  0
  5  6  2  0  0  0
  6 12  1  0  0  0
 12 13  2  0  0  0
 13 14  1  0  0  0
 14 15  2  0  0  0
 15 19  1  0  0  0
 19 20  1  0  0  0
 20 21  1  0  0  0
 20 22  1  0  0  0
 20 23  1  0  0  0
 15 16  1  0  0  0
 16 17  2  0  0  0
 17 18  1  0  0  0
  6  7  1  0  0  0
  7  8  2  0  0  0
  7  9  1  0  0  0
  9 10  1  0  0  0
 10 11  2  0  0  0
 11  1  1  0  0  0
 10  4  1  0  0  0
 33 28  1  0  0  0
 17 12  1  0  0  0
 38 39  1  0  0  0
M  END
> <minimizedAffinity>
-3.01021

> <CNNscore>
0.2915244401

> <CNNaffinity>
5.6513109207

> <CNN_VS>
1.6474952698

> <CNNaffinity_variance>
0.2978179455

$$$$
[H]OC(=O)/C([H])=C(\[H])c1c([H])c([H])c(Oc2c(-c3c([H])c([H])c(OC(F)(F)F)c([H])c3C([H])([H])[H])c(=O)oc3c([H])c(OC([H])([H])C([H])([H])[H])c([H])c([H])c23)c([H])c1[H]


 39 42  0  0  0  0  0  0  0  0999 V2000
   31.2125  -23.5228   35.3954 C   0  0  0  0  0  0  0  0  0  0  0  0
   31.7299  -22.3104   35.0098 C   0  0  0  0  0  0  0  0  0  0  0  0
   32.8162  -21.8105   35.6940 C   0  0  0  0  0  0  0  0  0  0  0  0
   33.3959  -22.4871   36.7488 C   0  0  0  0  0  0  0  0  0  0  0  0
   34.5062  -21.9861   37.4498 C   0  0  0  0  0  0  0  0  0  0  0  0
   34.9715  -22.7841   38.4749 C   0  0  0  0  0  0  0  0  0  0  0  0
   34.4036  -24.0091   38.8192 C   0  0  0  0  0  0  0  0  0  0  0  0
   34.8712  -24.7052   39.7722 O   0  0  0  0  0  0  0  0  0  0  0  0
   33.3789  -24.4176   38.1339 O   0  0  0  0  0  0  0  0  0  0  0  0
   32.8849  -23.7000   37.1392 C   0  0  0  0  0  0  0  0  0  0  0  0
   31.7876  -24.1985   36.4437 C   0  0  0  0  0  0  0  0  0  0  0  0
   36.0961  -22.3595   39.2824 C   0  0  0  0  0  0  0  0  0  0  0  0
   35.8874  -21.4995   40.3193 C   0  0  0  0  0  0  0  0  0  0  0  0
   36.9304  -21.0801   41.1057 C   0  0  0  0  0  0  0  0  0  0  0  0
   38.1982  -21.5366   40.8390 C   0  0  0  0  0  0  0  0  0  0  0  0
   38.4115  -22.4093   39.7871 C   0  0  0  0  0  0  0  0  0  0  0  0
   37.3579  -22.8171   39.0125 C   0  0  0  0  0  0  0  0  0  0  0  0
   37.6655  -23.7520   37.8995 C   0  0  0  0  0  0  0  0  0  0  0  0
   39.2623  -21.1088   41.6415 O   0  0  0  0  0  0  0  0  0  0  0  0
   39.2213  -21.2684   43.0553 C   0  0  0  0  0  0  0  0  0  0  0  0
   40.5112  -21.3852   43.5107 F   0  0  0  0  0  0  0  0  0  0  0  0
   38.6135  -20.1647   43.6245 F   0  0  0  0  0  0  0  0  0  0  0  0
   38.4774  -22.3805   43.4205 F   0  0  0  0  0  0  0  0  0  0  0  0
   30.1269  -24.0341   34.7207 O   0  0  0  0  0  0  0  0  0  0  0  0
   28.1288  -23.3296   35.8340 C   0  0  0  0  0  0  0  0  0  0  0  0
   28.9598  -24.5031   35.3678 C   0  0  0  0  0  0  0  0  0  0  0  0
   35.0058  -20.7983   37.0680 O   0  0  0  0  0  0  0  0  0  0  0  0
   36.2224  -20.3101   36.7619 C   0  0  0  0  0  0  0  0  0  0  0  0
   37.1765  -20.9227   35.9932 C   0  0  0  0  0  0  0  0  0  0  0  0
   38.4238  -20.3644   35.7155 C   0  0  0  0  0  0  0  0  0  0  0  0
   38.7600  -19.1151   36.2281 C   0  0  0  0  0  0  0  0  0  0  0  0
   37.8193  -18.4786   37.0031 C   0  0  0  0  0  0  0  0  0  0  0  0
   36.5959  -19.0494   37.2632 C   0  0  0  0  0  0  0  0  0  0  0  0
   40.0648  -18.5532   35.9261 C   0  0  0  0  0  0  0  0  0  0  0  0
   41.1048  -18.6159   36.7324 C   0  0  0  0  0  0  0  0  0  0  0  0
   42.3787  -18.0037   36.3071 C   0  0  0  0  0  0  0  0  0  0  0  0
   43.4829  -18.4694   36.6634 O   0  0  0  0  0  0  0  0  0  0  0  0
   42.3786  -16.8878   35.4950 O   0  0  0  0  0  0  0  0  0  0  0  0
   42.7102  -16.9042   34.5237 H   0  0  0  0  0  0  0  0  0  0  0  0
 25 26  1  0  0  0
 26 24  1  0  0  0
 24  1  1  0  0  0
  1  2  2  0  0  0
  2  3  1  0  0  0
  3  4  2  0  0  0
  4  5  1  0  0  0
  5 27  1  0  0  0
 27 28  1  0  0  0
 28 29  2  0  0  0
 29 30  1  0  0  0
 30 31  2  0  0  0
 31 34  1  0  0  0
 34 35  2  0  0  0
 35 36  1  0  0  0
 36 37  2  0  0  0
 36 38  1  0  0  0
 31 32  1  0  0  0
 32 33  2  0  0  0
  5  6  2  0  0  0
  6 12  1  0  0  0
 12 13  2  0  0  0
 13 14  1  0  0  0
 14 15  2  0  0  0
 15 19  1  0  0  0
 19 20  1  0  0  0
 20 21  1  0  0  0
 20 22  1  0  0  0
 20 23  1  0  0  0
 15 16  1  0  0  0
 16 17  2  0  0  0
 17 18  1  0  0  0
  6  7  1  0  0  0
  7  8  2  0  0  0
  7  9  1  0  0  0
  9 10  1  0  0  0
 10 11  2  0  0  0
 11  1  1  0  0  0
 10  4  1  0  0  0
 33 28  1  0  0  0
 17 12  1  0  0  0
 38 39  1  0  0  0
M  END
> <minimizedAffinity>
-4.07006

> <CNNscore>
0.2767849565

> <CNNaffinity>
5.4165825844

> <CNN_VS>
1.4992285967

> <CNNaffinity_variance>
0.1192545146

$$$$
[H]OC(=O)/C([H])=C(\[H])c1c([H])c([H])c(Oc2c(-c3c([H])c([H])c(OC(F)(F)F)c([H])c3C([H])([H])[H])c(=O)oc3c([H])c(OC([H])([H])C([H])([H])[H])c([H])c([H])c23)c([H])c1[H]


 39 42  0  0  0  0  0  0  0  0999 V2000
   31.7496  -22.0206   35.7783 C   0  0  0  0  0  0  0  0  0  0  0  0
   32.3976  -20.8750   35.3860 C   0  0  0  0  0  0  0  0  0  0  0  0
   33.6744  -20.6486   35.8513 C   0  0  0  0  0  0  0  0  0  0  0  0
   34.3174  -21.5327   36.6947 C   0  0  0  0  0  0  0  0  0  0  0  0
   35.6209  -21.3112   37.1711 C   0  0  0  0  0  0  0  0  0  0  0  0
   36.1250  -22.2914   38.0012 C   0  0  0  0  0  0  0  0  0  0  0  0
   35.4178  -23.4360   38.3635 C   0  0  0  0  0  0  0  0  0  0  0  0
   35.9286  -24.3085   39.1311 O   0  0  0  0  0  0  0  0  0  0  0  0
   34.2171  -23.5833   37.8908 O   0  0  0  0  0  0  0  0  0  0  0  0
   33.6764  -22.6805   37.0902 C   0  0  0  0  0  0  0  0  0  0  0  0
   32.3870  -22.9023   36.6165 C   0  0  0  0  0  0  0  0  0  0  0  0
   37.4495  -22.1598   38.5718 C   0  0  0  0  0  0  0  0  0  0  0  0
   37.6077  -21.4823   39.7442 C   0  0  0  0  0  0  0  0  0  0  0  0
   38.8480  -21.3420   40.3132 C   0  0  0  0  0  0  0  0  0  0  0  0
   39.9398  -21.8936   39.6882 C   0  0  0  0  0  0  0  0  0  0  0  0
   39.7808  -22.5812   38.4985 C   0  0  0  0  0  0  0  0  0  0  0  0
   38.5345  -22.7111   37.9450 C   0  0  0  0  0  0  0  0  0  0  0  0
   38.4434  -23.4599   36.6649 C   0  0  0  0  0  0  0  0  0  0  0  0
   41.2054  -21.7504   40.2689 O   0  0  0  0  0  0  0  0  0  0  0  0
   41.8020  -22.8205   40.9933 C   0  0  0  0  0  0  0  0  0  0  0  0
   40.7999  -23.5445   41.5904 F   0  0  0  0  0  0  0  0  0  0  0  0
   42.5151  -23.6233   40.1224 F   0  0  0  0  0  0  0  0  0  0  0  0
   42.6951  -22.3544   41.9464 F   0  0  0  0  0  0  0  0  0  0  0  0
   30.4731  -22.2595   35.3213 O   0  0  0  0  0  0  0  0  0  0  0  0
   30.0152  -24.4993   34.6129 C   0  0  0  0  0  0  0  0  0  0  0  0
   29.7386  -23.4254   35.6403 C   0  0  0  0  0  0  0  0  0  0  0  0
   36.2479  -20.1871   36.7845 O   0  0  0  0  0  0  0  0  0  0  0  0
   37.4529  -19.8750   36.2718 C   0  0  0  0  0  0  0  0  0  0  0  0
   37.9235  -20.2150   35.0311 C   0  0  0  0  0  0  0  0  0  0  0  0
   39.1876  -19.8637   34.5587 C   0  0  0  0  0  0  0  0  0  0  0  0
   40.0530  -19.1257   35.3605 C   0  0  0  0  0  0  0  0  0  0  0  0
   39.6045  -18.7712   36.6111 C   0  0  0  0  0  0  0  0  0  0  0  0
   38.3535  -19.1294   37.0548 C   0  0  0  0  0  0  0  0  0  0  0  0
   41.3650  -18.7713   34.8480 C   0  0  0  0  0  0  0  0  0  0  0  0
   42.2416  -18.0336   35.4983 C   0  0  0  0  0  0  0  0  0  0  0  0
   43.5435  -17.7444   34.8661 C   0  0  0  0  0  0  0  0  0  0  0  0
   43.9361  -16.5726   34.6763 O   0  0  0  0  0  0  0  0  0  0  0  0
   44.3679  -18.7760   34.4650 O   0  0  0  0  0  0  0  0  0  0  0  0
   45.2667  -18.9804   34.9167 H   0  0  0  0  0  0  0  0  0  0  0  0
 25 26  1  0  0  0
 26 24  1  0  0  0
 24  1  1  0  0  0
  1  2  2  0  0  0
  2  3  1  0  0  0
  3  4  2  0  0  0
  4  5  1  0  0  0
  5 27  1  0  0  0
 27 28  1  0  0  0
 28 29  2  0  0  0
 29 30  1  0  0  0
 30 31  2  0  0  0
 31 34  1  0  0  0
 34 35  2  0  0  0
 35 36  1  0  0  0
 36 37  2  0  0  0
 36 38  1  0  0  0
 31 32  1  0  0  0
 32 33  2  0  0  0
  5  6  2  0  0  0
  6 12  1  0  0  0
 12 13  2  0  0  0
 13 14  1  0  0  0
 14 15  2  0  0  0
 15 19  1  0  0  0
 19 20  1  0  0  0
 20 21  1  0  0  0
 20 22  1  0  0  0
 20 23  1  0  0  0
 15 16  1  0  0  0
 16 17  2  0  0  0
 17 18  1  0  0  0
  6  7  1  0  0  0
  7  8  2  0  0  0
  7  9  1  0  0  0
  9 10  1  0  0  0
 10 11  2  0  0  0
 11  1  1  0  0  0
 10  4  1  0  0  0
 33 28  1  0  0  0
 17 12  1  0  0  0
 38 39  1  0  0  0
M  END
> <minimizedAffinity>
-4.00936

> <CNNscore>
0.2406219989

> <CNNaffinity>
5.3757586479

> <CNN_VS>
1.2935258150

> <CNNaffinity_variance>
0.1236572489

$$$$
[H]OC(=O)/C([H])=C(\[H])c1c([H])c([H])c(Oc2c(-c3c([H])c([H])c(OC(F)(F)F)c([H])c3C([H])([H])[H])c(=O)oc3c([H])c(OC([H])([H])C([H])([H])[H])c([H])c([H])c23)c([H])c1[H]


 39 42  0  0  0  0  0  0  0  0999 V2000
   34.8311  -14.0910   36.1783 C   0  0  0  0  0  0  0  0  0  0  0  0
   36.1868  -14.0750   36.3973 C   0  0  0  0  0  0  0  0  0  0  0  0
   36.8460  -15.2770   36.5334 C   0  0  0  0  0  0  0  0  0  0  0  0
   36.1889  -16.4889   36.4570 C   0  0  0  0  0  0  0  0  0  0  0  0
   36.8542  -17.7197   36.5911 C   0  0  0  0  0  0  0  0  0  0  0  0
   36.0570  -18.8409   36.4848 C   0  0  0  0  0  0  0  0  0  0  0  0
   34.6826  -18.7935   36.2601 C   0  0  0  0  0  0  0  0  0  0  0  0
   33.9946  -19.8564   36.1700 O   0  0  0  0  0  0  0  0  0  0  0  0
   34.1258  -17.6258   36.1454 O   0  0  0  0  0  0  0  0  0  0  0  0
   34.8340  -16.5129   36.2371 C   0  0  0  0  0  0  0  0  0  0  0  0
   34.1749  -15.2950   36.1010 C   0  0  0  0  0  0  0  0  0  0  0  0
   36.6284  -20.1637   36.6296 C   0  0  0  0  0  0  0  0  0  0  0  0
   37.2264  -20.7545   35.5563 C   0  0  0  0  0  0  0  0  0  0  0  0
   37.7802  -22.0053   35.6605 C   0  0  0  0  0  0  0  0  0  0  0  0
   37.7279  -22.6647   36.8643 C   0  0  0  0  0  0  0  0  0  0  0  0
   37.1214  -22.0665   37.9542 C   0  0  0  0  0  0  0  0  0  0  0  0
   36.5737  -20.8169   37.8315 C   0  0  0  0  0  0  0  0  0  0  0  0
   35.9370  -20.2412   39.0443 C   0  0  0  0  0  0  0  0  0  0  0  0
   38.2931  -23.9409   36.9704 O   0  0  0  0  0  0  0  0  0  0  0  0
   37.5197  -25.1065   36.7075 C   0  0  0  0  0  0  0  0  0  0  0  0
   36.2940  -24.7092   36.2334 F   0  0  0  0  0  0  0  0  0  0  0  0
   38.1661  -25.8831   35.7638 F   0  0  0  0  0  0  0  0  0  0  0  0
   37.3686  -25.8846   37.8455 F   0  0  0  0  0  0  0  0  0  0  0  0
   34.1595  -12.8971   36.0408 O   0  0  0  0  0  0  0  0  0  0  0  0
   33.2583  -12.2107   38.1492 C   0  0  0  0  0  0  0  0  0  0  0  0
   34.1941  -11.8694   37.0121 C   0  0  0  0  0  0  0  0  0  0  0  0
   38.1804  -17.6960   36.8072 O   0  0  0  0  0  0  0  0  0  0  0  0
   39.2362  -18.4493   36.4466 C   0  0  0  0  0  0  0  0  0  0  0  0
   40.0403  -19.1786   37.2821 C   0  0  0  0  0  0  0  0  0  0  0  0
   41.1253  -19.9380   36.8456 C   0  0  0  0  0  0  0  0  0  0  0  0
   41.4451  -19.9861   35.4921 C   0  0  0  0  0  0  0  0  0  0  0  0
   40.6531  -19.2628   34.6318 C   0  0  0  0  0  0  0  0  0  0  0  0
   39.5883  -18.5212   35.0861 C   0  0  0  0  0  0  0  0  0  0  0  0
   42.5798  -20.7835   35.0602 C   0  0  0  0  0  0  0  0  0  0  0  0
   42.6329  -22.0980   35.1298 C   0  0  0  0  0  0  0  0  0  0  0  0
   43.8465  -22.7918   34.6566 C   0  0  0  0  0  0  0  0  0  0  0  0
   44.6205  -23.3750   35.4466 O   0  0  0  0  0  0  0  0  0  0  0  0
   44.1579  -22.8123   33.3123 O   0  0  0  0  0  0  0  0  0  0  0  0
   44.1281  -23.6675   32.7452 H   0  0  0  0  0  0  0  0  0  0  0  0
 25 26  1  0  0  0
 26 24  1  0  0  0
 24  1  1  0  0  0
  1  2  2  0  0  0
  2  3  1  0  0  0
  3  4  2  0  0  0
  4  5  1  0  0  0
  5 27  1  0  0  0
 27 28  1  0  0  0
 28 29  2  0  0  0
 29 30  1  0  0  0
 30 31  2  0  0  0
 31 34  1  0  0  0
 34 35  2  0  0  0
 35 36  1  0  0  0
 36 37  2  0  0  0
 36 38  1  0  0  0
 31 32  1  0  0  0
 32 33  2  0  0  0
  5  6  2  0  0  0
  6 12  1  0  0  0
 12 13  2  0  0  0
 13 14  1  0  0  0
 14 15  2  0  0  0
 15 19  1  0  0  0
 19 20  1  0  0  0
 20 21  1  0  0  0
 20 22  1  0  0  0
 20 23  1  0  0  0
 15 16  1  0  0  0
 16 17  2  0  0  0
 17 18  1  0  0  0
  6  7  1  0  0  0
  7  8  2  0  0  0
  7  9  1  0  0  0
  9 10  1  0  0  0
 10 11  2  0  0  0
 11  1  1  0  0  0
 10  4  1  0  0  0
 33 28  1  0  0  0
 17 12  1  0  0  0
 38 39  1  0  0  0
M  END
> <minimizedAffinity>
-4.58997

> <CNNscore>
0.1986404955

> <CNNaffinity>
5.6744484901

> <CNN_VS>
1.1271752119

> <CNNaffinity_variance>
0.2562290132

$$$$
[H]OC(=O)/C([H])=C(\[H])c1c([H])c([H])c(Oc2c(-c3c([H])c([H])c(OC(F)(F)F)c([H])c3C([H])([H])[H])c(=O)oc3c([H])c(OC([H])([H])C([H])([H])[H])c([H])c([H])c23)c([H])c1[H]


 39 42  0  0  0  0  0  0  0  0999 V2000
   32.6298  -19.1747   35.3414 C   0  0  0  0  0  0  0  0  0  0  0  0
   32.7814  -20.1972   36.2456 C   0  0  0  0  0  0  0  0  0  0  0  0
   34.0568  -20.5862   36.5920 C   0  0  0  0  0  0  0  0  0  0  0  0
   35.1795  -19.9832   36.0606 C   0  0  0  0  0  0  0  0  0  0  0  0
   36.4840  -20.3713   36.4111 C   0  0  0  0  0  0  0  0  0  0  0  0
   37.4990  -19.6670   35.7967 C   0  0  0  0  0  0  0  0  0  0  0  0
   37.2821  -18.6352   34.8856 C   0  0  0  0  0  0  0  0  0  0  0  0
   38.2527  -18.0183   34.3483 O   0  0  0  0  0  0  0  0  0  0  0  0
   36.0536  -18.3234   34.6023 O   0  0  0  0  0  0  0  0  0  0  0  0
   35.0358  -18.9596   35.1571 C   0  0  0  0  0  0  0  0  0  0  0  0
   33.7447  -18.5724   34.8117 C   0  0  0  0  0  0  0  0  0  0  0  0
   38.8844  -19.9945   36.0625 C   0  0  0  0  0  0  0  0  0  0  0  0
   39.5435  -19.3473   37.0651 C   0  0  0  0  0  0  0  0  0  0  0  0
   40.8551  -19.6359   37.3450 C   0  0  0  0  0  0  0  0  0  0  0  0
   41.5061  -20.5902   36.6017 C   0  0  0  0  0  0  0  0  0  0  0  0
   40.8386  -21.2477   35.5841 C   0  0  0  0  0  0  0  0  0  0  0  0
   39.5289  -20.9462   35.3189 C   0  0  0  0  0  0  0  0  0  0  0  0
   38.8802  -21.6914   34.2091 C   0  0  0  0  0  0  0  0  0  0  0  0
   42.8444  -20.8847   36.8875 O   0  0  0  0  0  0  0  0  0  0  0  0
   43.8461  -19.8763   36.8137 C   0  0  0  0  0  0  0  0  0  0  0  0
   44.6215  -19.9593   37.9436 F   0  0  0  0  0  0  0  0  0  0  0  0
   44.6220  -20.0814   35.6878 F   0  0  0  0  0  0  0  0  0  0  0  0
   43.2880  -18.6115   36.7025 F   0  0  0  0  0  0  0  0  0  0  0  0
   31.3611  -18.7760   34.9858 O   0  0  0  0  0  0  0  0  0  0  0  0
   29.1340  -19.2725   35.7082 C   0  0  0  0  0  0  0  0  0  0  0  0
   30.2833  -19.6756   34.8128 C   0  0  0  0  0  0  0  0  0  0  0  0
   36.6243  -21.3740   37.2950 O   0  0  0  0  0  0  0  0  0  0  0  0
   37.4445  -21.6515   38.3258 C   0  0  0  0  0  0  0  0  0  0  0  0
   37.4632  -21.0249   39.5438 C   0  0  0  0  0  0  0  0  0  0  0  0
   38.3437  -21.3574   40.5728 C   0  0  0  0  0  0  0  0  0  0  0  0
   39.2728  -22.3780   40.3950 C   0  0  0  0  0  0  0  0  0  0  0  0
   39.2746  -23.0234   39.1808 C   0  0  0  0  0  0  0  0  0  0  0  0
   38.3964  -22.6776   38.1812 C   0  0  0  0  0  0  0  0  0  0  0  0
   40.1802  -22.7070   41.4804 C   0  0  0  0  0  0  0  0  0  0  0  0
   41.4094  -23.1502   41.3118 C   0  0  0  0  0  0  0  0  0  0  0  0
   42.2322  -23.4488   42.5001 C   0  0  0  0  0  0  0  0  0  0  0  0
   41.7252  -23.5741   43.6360 O   0  0  0  0  0  0  0  0  0  0  0  0
   43.5991  -23.5985   42.3815 O   0  0  0  0  0  0  0  0  0  0  0  0
   44.0765  -24.4966   42.5198 H   0  0  0  0  0  0  0  0  0  0  0  0
 25 26  1  0  0  0
 26 24  1  0  0  0
 24  1  1  0  0  0
  1  2  2  0  0  0
  2  3  1  0  0  0
  3  4  2  0  0  0
  4  5  1  0  0  0
  5 27  1  0  0  0
 27 28  1  0  0  0
 28 29  2  0  0  0
 29 30  1  0  0  0
 30 31  2  0  0  0
 31 34  1  0  0  0
 34 35  2  0  0  0
 35 36  1  0  0  0
 36 37  2  0  0  0
 36 38  1  0  0  0
 31 32  1  0  0  0
 32 33  2  0  0  0
  5  6  2  0  0  0
  6 12  1  0  0  0
 12 13  2  0  0  0
 13 14  1  0  0  0
 14 15  2  0  0  0
 15 19  1  0  0  0
 19 20  1  0  0  0
 20 21  1  0  0  0
 20 22  1  0  0  0
 20 23  1  0  0  0
 15 16  1  0  0  0
 16 17  2  0  0  0
 17 18  1  0  0  0
  6  7  1  0  0  0
  7  8  2  0  0  0
  7  9  1  0  0  0
  9 10  1  0  0  0
 10 11  2  0  0  0
 11  1  1  0  0  0
 10  4  1  0  0  0
 33 28  1  0  0  0
 17 12  1  0  0  0
 38 39  1  0  0  0
M  END
> <minimizedAffinity>
-4.16158

> <CNNscore>
0.1954988986

> <CNNaffinity>
5.5113677979

> <CNN_VS>
1.0774663687

> <CNNaffinity_variance>
0.2417359650

$$$$
[H]N=C(c1c([H])c([H])c([H])c(Oc2c([H])c([H])c(N([H])[H])c([H])c2C(=O)N([H])c2c([H])c([H])c(-c3c([H])c([H])c([H])c([H])c3S(=O)(=O)N([H])[H])c([H])c2[H])c1[H])N([H])[H]


 44 47  0  0  0  0  0  0  0  0999 V2000
   35.1885  -17.1973   36.5317 C   0  0  0  0  0  0  0  0  0  0  0  0
   34.3224  -16.5192   35.6367 C   0  0  0  0  0  0  0  0  0  0  0  0
   33.5424  -17.2269   34.7621 C   0  0  0  0  0  0  0  0  0  0  0  0
   33.6275  -18.5965   34.7803 C   0  0  0  0  0  0  0  0  0  0  0  0
   32.8212  -19.3065   33.8572 N   0  0  0  0  0  0  0  0  0  0  0  0
   34.4611  -19.2514   35.6509 C   0  0  0  0  0  0  0  0  0  0  0  0
   35.2830  -18.5324   36.5819 C   0  0  0  0  0  0  0  0  0  0  0  0
   32.2658  -20.1188   34.1423 H   0  0  0  0  0  0  0  0  0  0  0  0
   32.8276  -18.9696   32.8810 H   0  0  0  0  0  0  0  0  0  0  0  0
   35.8137  -19.3655   37.6951 C   0  0  0  0  0  0  0  0  0  0  0  0
   34.9132  -19.4765   38.6282 O   0  0  0  0  0  0  0  0  0  0  0  0
   36.9823  -19.9564   37.8344 N   0  0  0  0  0  0  0  0  0  0  0  0
   36.4290  -20.7504   38.8342 H   0  0  0  0  0  0  0  0  0  0  0  0
   38.2064  -20.5754   37.9803 C   0  0  0  0  0  0  0  0  0  0  0  0
   38.5840  -21.0783   39.2474 C   0  0  0  0  0  0  0  0  0  0  0  0
   39.8255  -21.6289   39.4702 C   0  0  0  0  0  0  0  0  0  0  0  0
   40.7562  -21.7148   38.4664 C   0  0  0  0  0  0  0  0  0  0  0  0
   40.4158  -21.2397   37.2266 C   0  0  0  0  0  0  0  0  0  0  0  0
   39.1702  -20.6835   36.9908 C   0  0  0  0  0  0  0  0  0  0  0  0
   42.0865  -22.2393   38.6761 C   0  0  0  0  0  0  0  0  0  0  0  0
   42.4072  -23.5440   38.3516 C   0  0  0  0  0  0  0  0  0  0  0  0
   43.6561  -24.0628   38.5800 C   0  0  0  0  0  0  0  0  0  0  0  0
   44.6207  -23.2608   39.1501 C   0  0  0  0  0  0  0  0  0  0  0  0
   44.3226  -21.9663   39.4771 C   0  0  0  0  0  0  0  0  0  0  0  0
   43.0544  -21.4460   39.2416 C   0  0  0  0  0  0  0  0  0  0  0  0
   42.7689  -19.8051   39.6512 S   0  0  0  0  0  0  0  0  0  0  0  0
   44.2994  -19.0577   40.0681 N   0  0  0  0  0  0  0  0  0  0  0  0
   41.9780  -19.7282   40.9464 O   0  0  0  0  0  0  0  0  0  0  0  0
   42.1280  -18.9896   38.5657 O   0  0  0  0  0  0  0  0  0  0  0  0
   44.6449  -19.4040   40.9879 H   0  0  0  0  0  0  0  0  0  0  0  0
   44.9995  -19.2912   39.3448 H   0  0  0  0  0  0  0  0  0  0  0  0
   35.9674  -16.3601   37.3652 O   0  0  0  0  0  0  0  0  0  0  0  0
   34.1062  -13.2151   37.1565 C   0  0  0  0  0  0  0  0  0  0  0  0
   35.0334  -12.3556   36.6051 C   0  0  0  0  0  0  0  0  0  0  0  0
   36.3029  -12.7646   36.2815 C   0  0  0  0  0  0  0  0  0  0  0  0
   36.6202  -14.1089   36.5384 C   0  0  0  0  0  0  0  0  0  0  0  0
   35.7605  -14.9909   37.0709 C   0  0  0  0  0  0  0  0  0  0  0  0
   34.4561  -14.5196   37.3909 C   0  0  0  0  0  0  0  0  0  0  0  0
   31.8086  -12.6481   36.6427 N   0  0  0  0  0  0  0  0  0  0  0  0
   32.7489  -12.7607   37.4837 C   0  0  0  0  0  0  0  0  0  0  0  0
   32.4734  -12.4074   38.8312 N   0  0  0  0  0  0  0  0  0  0  0  0
   31.7927  -12.8438   35.6435 H   0  0  0  0  0  0  0  0  0  0  0  0
   32.2519  -11.3917   38.9962 H   0  0  0  0  0  0  0  0  0  0  0  0
   32.4694  -13.0297   39.6442 H   0  0  0  0  0  0  0  0  0  0  0  0
 39 40  2  0  0  0
 40 41  1  0  0  0
 40 33  1  0  0  0
 33 34  2  0  0  0
 34 35  1  0  0  0
 35 36  2  0  0  0
 36 37  1  0  0  0
 37 32  1  0  0  0
 32  1  1  0  0  0
  1  2  2  0  0  0
  2  3  1  0  0  0
  3  4  2  0  0  0
  4  5  1  0  0  0
  4  6  1  0  0  0
  6  7  2  0  0  0
  7 10  1  0  0  0
 10 11  2  0  0  0
 10 12  1  0  0  0
 12 14  1  0  0  0
 14 15  2  0  0  0
 15 16  1  0  0  0
 16 17  2  0  0  0
 17 20  1  0  0  0
 20 21  2  0  0  0
 21 22  1  0  0  0
 22 23  2  0  0  0
 23 24  1  0  0  0
 24 25  2  0  0  0
 25 26  1  0  0  0
 26 27  1  0  0  0
 26 28  2  0  0  0
 26 29  2  0  0  0
 17 18  1  0  0  0
 18 19  2  0  0  0
 37 38  2  0  0  0
 38 33  1  0  0  0
  7  1  1  0  0  0
 19 14  1  0  0  0
 25 20  1  0  0  0
 39 42  1  0  0  0
 41 43  1  0  0  0
 41 44  1  0  0  0
  5  8  1  0  0  0
  5  9  1  0  0  0
 12 13  1  0  0  0
 27 30  1  0  0  0
 27 31  1  0  0  0
M  END
> <minimizedAffinity>
-7.18322

> <CNNscore>
0.3592560887

> <CNNaffinity>
5.8513994217

> <CNN_VS>
2.1021509171

> <CNNaffinity_variance>
0.0762933493

$$$$
[H]N=C(c1c([H])c([H])c([H])c(Oc2c([H])c([H])c(N([H])[H])c([H])c2C(=O)N([H])c2c([H])c([H])c(-c3c([H])c([H])c([H])c([H])c3S(=O)(=O)N([H])[H])c([H])c2[H])c1[H])N([H])[H]


 44 47  0  0  0  0  0  0  0  0999 V2000
   36.0658  -16.5204   36.8394 C   0  0  0  0  0  0  0  0  0  0  0  0
   37.0924  -15.9248   37.6156 C   0  0  0  0  0  0  0  0  0  0  0  0
   37.2564  -14.5657   37.6164 C   0  0  0  0  0  0  0  0  0  0  0  0
   36.4055  -13.8100   36.8494 C   0  0  0  0  0  0  0  0  0  0  0  0
   36.6032  -12.4073   36.8555 N   0  0  0  0  0  0  0  0  0  0  0  0
   35.4089  -14.3870   36.1039 C   0  0  0  0  0  0  0  0  0  0  0  0
   35.2122  -15.8083   36.0922 C   0  0  0  0  0  0  0  0  0  0  0  0
   35.8217  -11.7549   36.9697 H   0  0  0  0  0  0  0  0  0  0  0  0
   37.5731  -12.0753   36.7308 H   0  0  0  0  0  0  0  0  0  0  0  0
   33.8850  -16.2350   35.5714 C   0  0  0  0  0  0  0  0  0  0  0  0
   33.2323  -15.1986   35.1313 O   0  0  0  0  0  0  0  0  0  0  0  0
   33.3415  -17.4326   35.5039 N   0  0  0  0  0  0  0  0  0  0  0  0
   32.4281  -16.9342   34.5801 H   0  0  0  0  0  0  0  0  0  0  0  0
   32.7722  -18.6870   35.4332 C   0  0  0  0  0  0  0  0  0  0  0  0
   33.4308  -19.7840   36.0365 C   0  0  0  0  0  0  0  0  0  0  0  0
   32.9525  -21.0697   35.9252 C   0  0  0  0  0  0  0  0  0  0  0  0
   31.8086  -21.3446   35.2202 C   0  0  0  0  0  0  0  0  0  0  0  0
   31.1466  -20.3000   34.6289 C   0  0  0  0  0  0  0  0  0  0  0  0
   31.6185  -19.0028   34.7339 C   0  0  0  0  0  0  0  0  0  0  0  0
   31.3050  -22.6871   35.0391 C   0  0  0  0  0  0  0  0  0  0  0  0
   31.6077  -23.4251   33.9103 C   0  0  0  0  0  0  0  0  0  0  0  0
   31.1058  -24.6859   33.7114 C   0  0  0  0  0  0  0  0  0  0  0  0
   30.2748  -25.2342   34.6639 C   0  0  0  0  0  0  0  0  0  0  0  0
   29.9646  -24.5196   35.7885 C   0  0  0  0  0  0  0  0  0  0  0  0
   30.4781  -23.2420   35.9848 C   0  0  0  0  0  0  0  0  0  0  0  0
   30.0670  -22.4233   37.4349 S   0  0  0  0  0  0  0  0  0  0  0  0
   31.4743  -22.3961   38.4806 N   0  0  0  0  0  0  0  0  0  0  0  0
   29.0617  -23.2463   38.2230 O   0  0  0  0  0  0  0  0  0  0  0  0
   29.5946  -21.0109   37.2459 O   0  0  0  0  0  0  0  0  0  0  0  0
   31.6677  -23.3429   38.8699 H   0  0  0  0  0  0  0  0  0  0  0  0
   32.2970  -22.0905   37.9350 H   0  0  0  0  0  0  0  0  0  0  0  0
   36.0136  -17.9335   36.8938 O   0  0  0  0  0  0  0  0  0  0  0  0
   39.2041  -19.1556   35.5798 C   0  0  0  0  0  0  0  0  0  0  0  0
   38.8524  -19.6254   34.3316 C   0  0  0  0  0  0  0  0  0  0  0  0
   37.5619  -19.5656   33.8683 C   0  0  0  0  0  0  0  0  0  0  0  0
   36.6056  -19.0001   34.7283 C   0  0  0  0  0  0  0  0  0  0  0  0
   36.8883  -18.5255   35.9511 C   0  0  0  0  0  0  0  0  0  0  0  0
   38.2404  -18.6105   36.3880 C   0  0  0  0  0  0  0  0  0  0  0  0
   41.2373  -18.2297   36.5142 N   0  0  0  0  0  0  0  0  0  0  0  0
   40.5932  -19.2173   36.0516 C   0  0  0  0  0  0  0  0  0  0  0  0
   41.2678  -20.4640   35.9697 N   0  0  0  0  0  0  0  0  0  0  0  0
   40.9481  -17.2638   36.6561 H   0  0  0  0  0  0  0  0  0  0  0  0
   42.0808  -20.4954   35.3020 H   0  0  0  0  0  0  0  0  0  0  0  0
   41.0466  -21.3207   36.4850 H   0  0  0  0  0  0  0  0  0  0  0  0
 39 40  2  0  0  0
 40 41  1  0  0  0
 40 33  1  0  0  0
 33 34  2  0  0  0
 34 35  1  0  0  0
 35 36  2  0  0  0
 36 37  1  0  0  0
 37 32  1  0  0  0
 32  1  1  0  0  0
  1  2  2  0  0  0
  2  3  1  0  0  0
  3  4  2  0  0  0
  4  5  1  0  0  0
  4  6  1  0  0  0
  6  7  2  0  0  0
  7 10  1  0  0  0
 10 11  2  0  0  0
 10 12  1  0  0  0
 12 14  1  0  0  0
 14 15  2  0  0  0
 15 16  1  0  0  0
 16 17  2  0  0  0
 17 20  1  0  0  0
 20 21  2  0  0  0
 21 22  1  0  0  0
 22 23  2  0  0  0
 23 24  1  0  0  0
 24 25  2  0  0  0
 25 26  1  0  0  0
 26 27  1  0  0  0
 26 28  2  0  0  0
 26 29  2  0  0  0
 17 18  1  0  0  0
 18 19  2  0  0  0
 37 38  2  0  0  0
 38 33  1  0  0  0
  7  1  1  0  0  0
 19 14  1  0  0  0
 25 20  1  0  0  0
 39 42  1  0  0  0
 41 43  1  0  0  0
 41 44  1  0  0  0
  5  8  1  0  0  0
  5  9  1  0  0  0
 12 13  1  0  0  0
 27 30  1  0  0  0
 27 31  1  0  0  0
M  END
> <minimizedAffinity>
-7.73749

> <CNNscore>
0.3259657919

> <CNNaffinity>
5.6605782509

> <CNN_VS>
1.8451548815

> <CNNaffinity_variance>
0.3017038703

$$$$
[H]N=C(c1c([H])c([H])c([H])c(Oc2c([H])c([H])c(N([H])[H])c([H])c2C(=O)N([H])c2c([H])c([H])c(-c3c([H])c([H])c([H])c([H])c3S(=O)(=O)N([H])[H])c([H])c2[H])c1[H])N([H])[H]


 44 47  0  0  0  0  0  0  0  0999 V2000
   35.9807  -16.4745   37.0706 C   0  0  0  0  0  0  0  0  0  0  0  0
   36.9768  -15.8241   37.8424 C   0  0  0  0  0  0  0  0  0  0  0  0
   37.2038  -14.4831   37.6870 C   0  0  0  0  0  0  0  0  0  0  0  0
   36.4452  -13.7995   36.7701 C   0  0  0  0  0  0  0  0  0  0  0  0
   36.7074  -12.4159   36.6172 N   0  0  0  0  0  0  0  0  0  0  0  0
   35.4777  -14.4287   36.0287 C   0  0  0  0  0  0  0  0  0  0  0  0
   35.2160  -15.8316   36.1784 C   0  0  0  0  0  0  0  0  0  0  0  0
   35.9512  -11.7253   36.5902 H   0  0  0  0  0  0  0  0  0  0  0  0
   37.6982  -12.1390   36.5260 H   0  0  0  0  0  0  0  0  0  0  0  0
   33.9102  -16.2708   35.6155 C   0  0  0  0  0  0  0  0  0  0  0  0
   33.2779  -15.2459   35.1221 O   0  0  0  0  0  0  0  0  0  0  0  0
   33.3676  -17.4694   35.5578 N   0  0  0  0  0  0  0  0  0  0  0  0
   32.4934  -16.9948   34.5848 H   0  0  0  0  0  0  0  0  0  0  0  0
   32.7992  -18.7248   35.4972 C   0  0  0  0  0  0  0  0  0  0  0  0
   33.5223  -19.8390   35.9839 C   0  0  0  0  0  0  0  0  0  0  0  0
   33.0403  -21.1233   35.8722 C   0  0  0  0  0  0  0  0  0  0  0  0
   31.8297  -21.3798   35.2807 C   0  0  0  0  0  0  0  0  0  0  0  0
   31.1048  -20.3185   34.8042 C   0  0  0  0  0  0  0  0  0  0  0  0
   31.5798  -19.0224   34.9107 C   0  0  0  0  0  0  0  0  0  0  0  0
   31.3155  -22.7184   35.1000 C   0  0  0  0  0  0  0  0  0  0  0  0
   31.5327  -23.4231   33.9310 C   0  0  0  0  0  0  0  0  0  0  0  0
   31.0187  -24.6795   33.7347 C   0  0  0  0  0  0  0  0  0  0  0  0
   30.2629  -25.2573   34.7314 C   0  0  0  0  0  0  0  0  0  0  0  0
   30.0379  -24.5759   35.8962 C   0  0  0  0  0  0  0  0  0  0  0  0
   30.5633  -23.3026   36.0894 C   0  0  0  0  0  0  0  0  0  0  0  0
   30.2622  -22.5268   37.5891 S   0  0  0  0  0  0  0  0  0  0  0  0
   29.1401  -23.5087   38.5120 N   0  0  0  0  0  0  0  0  0  0  0  0
   29.4900  -21.2389   37.3563 O   0  0  0  0  0  0  0  0  0  0  0  0
   31.4831  -22.2921   38.4305 O   0  0  0  0  0  0  0  0  0  0  0  0
   28.1829  -23.4644   38.1034 H   0  0  0  0  0  0  0  0  0  0  0  0
   29.4583  -24.4918   38.4981 H   0  0  0  0  0  0  0  0  0  0  0  0
   35.8588  -17.8662   37.2956 O   0  0  0  0  0  0  0  0  0  0  0  0
   38.2300  -18.9566   34.7290 C   0  0  0  0  0  0  0  0  0  0  0  0
   39.0382  -19.8331   35.4225 C   0  0  0  0  0  0  0  0  0  0  0  0
   38.8455  -20.1026   36.7544 C   0  0  0  0  0  0  0  0  0  0  0  0
   37.7796  -19.4409   37.3868 C   0  0  0  0  0  0  0  0  0  0  0  0
   36.9598  -18.5801   36.7644 C   0  0  0  0  0  0  0  0  0  0  0  0
   37.2002  -18.3319   35.3835 C   0  0  0  0  0  0  0  0  0  0  0  0
   37.9627  -17.7022   32.6749 N   0  0  0  0  0  0  0  0  0  0  0  0
   38.4453  -18.6918   33.3010 C   0  0  0  0  0  0  0  0  0  0  0  0
   39.2347  -19.6152   32.5658 N   0  0  0  0  0  0  0  0  0  0  0  0
   37.3792  -16.9359   33.0052 H   0  0  0  0  0  0  0  0  0  0  0  0
   38.7242  -20.1517   31.8178 H   0  0  0  0  0  0  0  0  0  0  0  0
   40.2326  -19.8091   32.6882 H   0  0  0  0  0  0  0  0  0  0  0  0
 39 40  2  0  0  0
 40 41  1  0  0  0
 40 33  1  0  0  0
 33 34  2  0  0  0
 34 35  1  0  0  0
 35 36  2  0  0  0
 36 37  1  0  0  0
 37 32  1  0  0  0
 32  1  1  0  0  0
  1  2  2  0  0  0
  2  3  1  0  0  0
  3  4  2  0  0  0
  4  5  1  0  0  0
  4  6  1  0  0  0
  6  7  2  0  0  0
  7 10  1  0  0  0
 10 11  2  0  0  0
 10 12  1  0  0  0
 12 14  1  0  0  0
 14 15  2  0  0  0
 15 16  1  0  0  0
 16 17  2  0  0  0
 17 20  1  0  0  0
 20 21  2  0  0  0
 21 22  1  0  0  0
 22 23  2  0  0  0
 23 24  1  0  0  0
 24 25  2  0  0  0
 25 26  1  0  0  0
 26 27  1  0  0  0
 26 28  2  0  0  0
 26 29  2  0  0  0
 17 18  1  0  0  0
 18 19  2  0  0  0
 37 38  2  0  0  0
 38 33  1  0  0  0
  7  1  1  0  0  0
 19 14  1  0  0  0
 25 20  1  0  0  0
 39 42  1  0  0  0
 41 43  1  0  0  0
 41 44  1  0  0  0
  5  8  1  0  0  0
  5  9  1  0  0  0
 12 13  1  0  0  0
 27 30  1  0  0  0
 27 31  1  0  0  0
M  END
> <minimizedAffinity>
-8.25698

> <CNNscore>
0.3088063896

> <CNNaffinity>
5.8299913406

> <CNN_VS>
1.8003386259

> <CNNaffinity_variance>
0.5971478224

$$$$
[H]N=C(c1c([H])c([H])c([H])c(Oc2c([H])c([H])c(N([H])[H])c([H])c2C(=O)N([H])c2c([H])c([H])c(-c3c([H])c([H])c([H])c([H])c3S(=O)(=O)N([H])[H])c([H])c2[H])c1[H])N([H])[H]


 44 47  0  0  0  0  0  0  0  0999 V2000
   32.1733  -20.3349   34.5697 C   0  0  0  0  0  0  0  0  0  0  0  0
   31.1703  -19.3585   34.3429 C   0  0  0  0  0  0  0  0  0  0  0  0
   29.9569  -19.4577   34.9690 C   0  0  0  0  0  0  0  0  0  0  0  0
   29.7472  -20.5210   35.8110 C   0  0  0  0  0  0  0  0  0  0  0  0
   28.4795  -20.6098   36.4367 N   0  0  0  0  0  0  0  0  0  0  0  0
   30.7206  -21.4614   36.0341 C   0  0  0  0  0  0  0  0  0  0  0  0
   32.0028  -21.3755   35.3956 C   0  0  0  0  0  0  0  0  0  0  0  0
   28.3868  -20.8054   37.4380 H   0  0  0  0  0  0  0  0  0  0  0  0
   27.6534  -20.4759   35.8315 H   0  0  0  0  0  0  0  0  0  0  0  0
   33.0550  -22.2177   36.0268 C   0  0  0  0  0  0  0  0  0  0  0  0
   32.6546  -23.4549   36.0783 O   0  0  0  0  0  0  0  0  0  0  0  0
   34.2416  -21.8898   36.4943 N   0  0  0  0  0  0  0  0  0  0  0  0
   34.5971  -23.2345   36.4536 H   0  0  0  0  0  0  0  0  0  0  0  0
   35.4846  -21.5463   36.9840 C   0  0  0  0  0  0  0  0  0  0  0  0
   36.5064  -22.5234   37.0329 C   0  0  0  0  0  0  0  0  0  0  0  0
   37.7377  -22.2602   37.5885 C   0  0  0  0  0  0  0  0  0  0  0  0
   38.0294  -21.0307   38.1218 C   0  0  0  0  0  0  0  0  0  0  0  0
   37.0596  -20.0627   38.0838 C   0  0  0  0  0  0  0  0  0  0  0  0
   35.8173  -20.3162   37.5278 C   0  0  0  0  0  0  0  0  0  0  0  0
   39.2924  -20.7341   38.7588 C   0  0  0  0  0  0  0  0  0  0  0  0
   40.3043  -20.0777   38.0839 C   0  0  0  0  0  0  0  0  0  0  0  0
   41.5195  -19.8235   38.6668 C   0  0  0  0  0  0  0  0  0  0  0  0
   41.7397  -20.2345   39.9634 C   0  0  0  0  0  0  0  0  0  0  0  0
   40.7497  -20.8847   40.6482 C   0  0  0  0  0  0  0  0  0  0  0  0
   39.5191  -21.1381   40.0516 C   0  0  0  0  0  0  0  0  0  0  0  0
   38.3194  -21.9307   40.9867 S   0  0  0  0  0  0  0  0  0  0  0  0
   38.9177  -22.1154   42.6246 N   0  0  0  0  0  0  0  0  0  0  0  0
   38.1590  -23.3644   40.5094 O   0  0  0  0  0  0  0  0  0  0  0  0
   36.9987  -21.2193   41.0463 O   0  0  0  0  0  0  0  0  0  0  0  0
   39.6692  -22.8356   42.6679 H   0  0  0  0  0  0  0  0  0  0  0  0
   39.3071  -21.2142   42.9475 H   0  0  0  0  0  0  0  0  0  0  0  0
   33.3732  -20.1442   33.8441 O   0  0  0  0  0  0  0  0  0  0  0  0
   36.4260  -18.2291   34.4858 C   0  0  0  0  0  0  0  0  0  0  0  0
   35.9853  -17.2439   35.3447 C   0  0  0  0  0  0  0  0  0  0  0  0
   34.6759  -17.1618   35.7474 C   0  0  0  0  0  0  0  0  0  0  0  0
   33.7955  -18.1334   35.2426 C   0  0  0  0  0  0  0  0  0  0  0  0
   34.1664  -19.1153   34.4066 C   0  0  0  0  0  0  0  0  0  0  0  0
   35.5345  -19.1586   34.0163 C   0  0  0  0  0  0  0  0  0  0  0  0
   38.2394  -18.2118   32.8809 N   0  0  0  0  0  0  0  0  0  0  0  0
   37.8341  -18.3070   34.0770 C   0  0  0  0  0  0  0  0  0  0  0  0
   38.8084  -18.5196   35.0879 N   0  0  0  0  0  0  0  0  0  0  0  0
   37.7176  -18.0619   32.0194 H   0  0  0  0  0  0  0  0  0  0  0  0
   39.3221  -19.4369   35.0352 H   0  0  0  0  0  0  0  0  0  0  0  0
   39.0568  -17.8824   35.8498 H   0  0  0  0  0  0  0  0  0  0  0  0
 39 40  2  0  0  0
 40 41  1  0  0  0
 40 33  1  0  0  0
 33 34  2  0  0  0
 34 35  1  0  0  0
 35 36  2  0  0  0
 36 37  1  0  0  0
 37 32  1  0  0  0
 32  1  1  0  0  0
  1  2  2  0  0  0
  2  3  1  0  0  0
  3  4  2  0  0  0
  4  5  1  0  0  0
  4  6  1  0  0  0
  6  7  2  0  0  0
  7 10  1  0  0  0
 10 11  2  0  0  0
 10 12  1  0  0  0
 12 14  1  0  0  0
 14 15  2  0  0  0
 15 16  1  0  0  0
 16 17  2  0  0  0
 17 20  1  0  0  0
 20 21  2  0  0  0
 21 22  1  0  0  0
 22 23  2  0  0  0
 23 24  1  0  0  0
 24 25  2  0  0  0
 25 26  1  0  0  0
 26 27  1  0  0  0
 26 28  2  0  0  0
 26 29  2  0  0  0
 17 18  1  0  0  0
 18 19  2  0  0  0
 37 38  2  0  0  0
 38 33  1  0  0  0
  7  1  1  0  0  0
 19 14  1  0  0  0
 25 20  1  0  0  0
 39 42  1  0  0  0
 41 43  1  0  0  0
 41 44  1  0  0  0
  5  8  1  0  0  0
  5  9  1  0  0  0
 12 13  1  0  0  0
 27 30  1  0  0  0
 27 31  1  0  0  0
M  END
> <minimizedAffinity>
-6.89821

> <CNNscore>
0.2477607876

> <CNNaffinity>
5.3131408691

> <CNN_VS>
1.3163880110

> <CNNaffinity_variance>
0.7533023357

$$$$
[H]N=C(c1c([H])c([H])c([H])c(Oc2c([H])c([H])c(N([H])[H])c([H])c2C(=O)N([H])c2c([H])c([H])c(-c3c([H])c([H])c([H])c([H])c3S(=O)(=O)N([H])[H])c([H])c2[H])c1[H])N([H])[H]


 44 47  0  0  0  0  0  0  0  0999 V2000
   37.9041  -19.6076   36.6266 C   0  0  0  0  0  0  0  0  0  0  0  0
   39.1795  -19.9497   36.1095 C   0  0  0  0  0  0  0  0  0  0  0  0
   39.4694  -19.7333   34.7892 C   0  0  0  0  0  0  0  0  0  0  0  0
   38.4959  -19.1826   33.9939 C   0  0  0  0  0  0  0  0  0  0  0  0
   38.8143  -18.9807   32.6285 N   0  0  0  0  0  0  0  0  0  0  0  0
   37.2647  -18.8465   34.4969 C   0  0  0  0  0  0  0  0  0  0  0  0
   36.9393  -19.0567   35.8785 C   0  0  0  0  0  0  0  0  0  0  0  0
   38.6028  -18.0988   32.1520 H   0  0  0  0  0  0  0  0  0  0  0  0
   39.2626  -19.7696   32.1354 H   0  0  0  0  0  0  0  0  0  0  0  0
   35.7481  -18.2969   36.3459 C   0  0  0  0  0  0  0  0  0  0  0  0
   34.8099  -19.1262   36.7008 O   0  0  0  0  0  0  0  0  0  0  0  0
   35.5490  -16.9985   36.4397 N   0  0  0  0  0  0  0  0  0  0  0  0
   34.4761  -17.2537   37.2881 H   0  0  0  0  0  0  0  0  0  0  0  0
   35.3405  -15.6385   36.5379 C   0  0  0  0  0  0  0  0  0  0  0  0
   34.2564  -15.0500   35.8455 C   0  0  0  0  0  0  0  0  0  0  0  0
   34.0507  -13.6892   35.8393 C   0  0  0  0  0  0  0  0  0  0  0  0
   34.8934  -12.8393   36.5093 C   0  0  0  0  0  0  0  0  0  0  0  0
   35.9499  -13.3823   37.1932 C   0  0  0  0  0  0  0  0  0  0  0  0
   36.1669  -14.7496   37.2062 C   0  0  0  0  0  0  0  0  0  0  0  0
   34.7384  -11.4026   36.4829 C   0  0  0  0  0  0  0  0  0  0  0  0
   35.6597  -10.5890   35.8507 C   0  0  0  0  0  0  0  0  0  0  0  0
   35.5418   -9.2225   35.8508 C   0  0  0  0  0  0  0  0  0  0  0  0
   34.4741   -8.6422   36.5001 C   0  0  0  0  0  0  0  0  0  0  0  0
   33.5511   -9.4310   37.1306 C   0  0  0  0  0  0  0  0  0  0  0  0
   33.6758  -10.8163   37.1255 C   0  0  0  0  0  0  0  0  0  0  0  0
   32.4607  -11.7366   37.9120 S   0  0  0  0  0  0  0  0  0  0  0  0
   31.5380  -12.6004   36.6965 N   0  0  0  0  0  0  0  0  0  0  0  0
   31.4332  -10.8064   38.5351 O   0  0  0  0  0  0  0  0  0  0  0  0
   32.9756  -12.7346   38.9083 O   0  0  0  0  0  0  0  0  0  0  0  0
   30.9325  -11.9482   36.1550 H   0  0  0  0  0  0  0  0  0  0  0  0
   32.1894  -13.0643   36.0419 H   0  0  0  0  0  0  0  0  0  0  0  0
   37.7105  -19.9062   37.9962 O   0  0  0  0  0  0  0  0  0  0  0  0
   37.0581  -23.5080   37.9723 C   0  0  0  0  0  0  0  0  0  0  0  0
   38.1422  -24.0122   38.6601 C   0  0  0  0  0  0  0  0  0  0  0  0
   39.1307  -23.2002   39.1571 C   0  0  0  0  0  0  0  0  0  0  0  0
   38.9895  -21.8204   38.9330 C   0  0  0  0  0  0  0  0  0  0  0  0
   37.9575  -21.2724   38.2734 C   0  0  0  0  0  0  0  0  0  0  0  0
   36.9579  -22.1551   37.7756 C   0  0  0  0  0  0  0  0  0  0  0  0
   35.7462  -24.5629   36.2314 N   0  0  0  0  0  0  0  0  0  0  0  0
   36.0046  -24.3930   37.4596 C   0  0  0  0  0  0  0  0  0  0  0  0
   35.2092  -25.0950   38.4035 N   0  0  0  0  0  0  0  0  0  0  0  0
   36.1864  -24.1625   35.4051 H   0  0  0  0  0  0  0  0  0  0  0  0
   34.1928  -24.8227   38.4300 H   0  0  0  0  0  0  0  0  0  0  0  0
   35.5193  -25.8258   39.0500 H   0  0  0  0  0  0  0  0  0  0  0  0
 39 40  2  0  0  0
 40 41  1  0  0  0
 40 33  1  0  0  0
 33 34  2  0  0  0
 34 35  1  0  0  0
 35 36  2  0  0  0
 36 37  1  0  0  0
 37 32  1  0  0  0
 32  1  1  0  0  0
  1  2  2  0  0  0
  2  3  1  0  0  0
  3  4  2  0  0  0
  4  5  1  0  0  0
  4  6  1  0  0  0
  6  7  2  0  0  0
  7 10  1  0  0  0
 10 11  2  0  0  0
 10 12  1  0  0  0
 12 14  1  0  0  0
 14 15  2  0  0  0
 15 16  1  0  0  0
 16 17  2  0  0  0
 17 20  1  0  0  0
 20 21  2  0  0  0
 21 22  1  0  0  0
 22 23  2  0  0  0
 23 24  1  0  0  0
 24 25  2  0  0  0
 25 26  1  0  0  0
 26 27  1  0  0  0
 26 28  2  0  0  0
 26 29  2  0  0  0
 17 18  1  0  0  0
 18 19  2  0  0  0
 37 38  2  0  0  0
 38 33  1  0  0  0
  7  1  1  0  0  0
 19 14  1  0  0  0
 25 20  1  0  0  0
 39 42  1  0  0  0
 41 43  1  0  0  0
 41 44  1  0  0  0
  5  8  1  0  0  0
  5  9  1  0  0  0
 12 13  1  0  0  0
 27 30  1  0  0  0
 27 31  1  0  0  0
M  END
> <minimizedAffinity>
-7.72389

> <CNNscore>
0.2465577871

> <CNNaffinity>
5.9150094986

> <CNN_VS>
1.4583916664

> <CNNaffinity_variance>
0.1205622330

$$$$
[H]N=C(c1c([H])c([H])c([H])c(Oc2c([H])c([H])c(N([H])[H])c([H])c2C(=O)N([H])c2c([H])c([H])c(-c3c([H])c([H])c([H])c([H])c3S(=O)(=O)N([H])[H])c([H])c2[H])c1[H])N([H])[H]


 44 47  0  0  0  0  0  0  0  0999 V2000
   37.6348  -20.1662   36.0455 C   0  0  0  0  0  0  0  0  0  0  0  0
   38.5732  -20.6743   35.1116 C   0  0  0  0  0  0  0  0  0  0  0  0
   38.8426  -19.9853   33.9597 C   0  0  0  0  0  0  0  0  0  0  0  0
   38.1810  -18.8027   33.7423 C   0  0  0  0  0  0  0  0  0  0  0  0
   38.4659  -18.1147   32.5374 N   0  0  0  0  0  0  0  0  0  0  0  0
   37.2780  -18.3093   34.6495 C   0  0  0  0  0  0  0  0  0  0  0  0
   36.9841  -19.0091   35.8673 C   0  0  0  0  0  0  0  0  0  0  0  0
   38.6524  -17.1074   32.5249 H   0  0  0  0  0  0  0  0  0  0  0  0
   38.4680  -18.6774   31.6715 H   0  0  0  0  0  0  0  0  0  0  0  0
   36.3089  -18.1769   36.9000 C   0  0  0  0  0  0  0  0  0  0  0  0
   36.0065  -18.9142   37.9290 O   0  0  0  0  0  0  0  0  0  0  0  0
   36.0112  -16.8941   36.8989 N   0  0  0  0  0  0  0  0  0  0  0  0
   35.8462  -16.9611   38.2790 H   0  0  0  0  0  0  0  0  0  0  0  0
   35.6993  -15.5504   36.8979 C   0  0  0  0  0  0  0  0  0  0  0  0
   34.7051  -15.0686   36.0144 C   0  0  0  0  0  0  0  0  0  0  0  0
   34.4128  -13.7277   35.9108 C   0  0  0  0  0  0  0  0  0  0  0  0
   35.0771  -12.7945   36.6652 C   0  0  0  0  0  0  0  0  0  0  0  0
   36.0426  -13.2333   37.5337 C   0  0  0  0  0  0  0  0  0  0  0  0
   36.3452  -14.5796   37.6461 C   0  0  0  0  0  0  0  0  0  0  0  0
   34.8331  -11.3750   36.5461 C   0  0  0  0  0  0  0  0  0  0  0  0
   35.7329  -10.5388   35.9124 C   0  0  0  0  0  0  0  0  0  0  0  0
   35.5289   -9.1853   35.8256 C   0  0  0  0  0  0  0  0  0  0  0  0
   34.3939   -8.6416   36.3867 C   0  0  0  0  0  0  0  0  0  0  0  0
   33.4910   -9.4532   37.0171 C   0  0  0  0  0  0  0  0  0  0  0  0
   33.7032  -10.8253   37.1004 C   0  0  0  0  0  0  0  0  0  0  0  0
   32.5093  -11.7785   37.8799 S   0  0  0  0  0  0  0  0  0  0  0  0
   31.6659  -12.7221   36.6661 N   0  0  0  0  0  0  0  0  0  0  0  0
   31.4207  -10.8803   38.4431 O   0  0  0  0  0  0  0  0  0  0  0  0
   33.0399  -12.7200   38.9220 O   0  0  0  0  0  0  0  0  0  0  0  0
   31.0472  -12.1164   36.0869 H   0  0  0  0  0  0  0  0  0  0  0  0
   32.3581  -13.1738   36.0458 H   0  0  0  0  0  0  0  0  0  0  0  0
   37.4163  -20.9803   37.1822 O   0  0  0  0  0  0  0  0  0  0  0  0
   40.7846  -20.5913   38.5615 C   0  0  0  0  0  0  0  0  0  0  0  0
   41.1210  -21.8862   38.8970 C   0  0  0  0  0  0  0  0  0  0  0  0
   40.2638  -22.9379   38.6902 C   0  0  0  0  0  0  0  0  0  0  0  0
   39.0173  -22.6359   38.1167 C   0  0  0  0  0  0  0  0  0  0  0  0
   38.6355  -21.3976   37.7684 C   0  0  0  0  0  0  0  0  0  0  0  0
   39.5581  -20.3394   38.0034 C   0  0  0  0  0  0  0  0  0  0  0  0
   42.2791  -18.8225   37.8528 N   0  0  0  0  0  0  0  0  0  0  0  0
   41.7214  -19.4818   38.7793 C   0  0  0  0  0  0  0  0  0  0  0  0
   42.0377  -19.1328   40.1188 N   0  0  0  0  0  0  0  0  0  0  0  0
   42.1942  -18.9079   36.8416 H   0  0  0  0  0  0  0  0  0  0  0  0
   43.0372  -19.2971   40.4050 H   0  0  0  0  0  0  0  0  0  0  0  0
   41.4028  -18.7449   40.8221 H   0  0  0  0  0  0  0  0  0  0  0  0
 39 40  2  0  0  0
 40 41  1  0  0  0
 40 33  1  0  0  0
 33 34  2  0  0  0
 34 35  1  0  0  0
 35 36  2  0  0  0
 36 37  1  0  0  0
 37 32  1  0  0  0
 32  1  1  0  0  0
  1  2  2  0  0  0
  2  3  1  0  0  0
  3  4  2  0  0  0
  4  5  1  0  0  0
  4  6  1  0  0  0
  6  7  2  0  0  0
  7 10  1  0  0  0
 10 11  2  0  0  0
 10 12  1  0  0  0
 12 14  1  0  0  0
 14 15  2  0  0  0
 15 16  1  0  0  0
 16 17  2  0  0  0
 17 20  1  0  0  0
 20 21  2  0  0  0
 21 22  1  0  0  0
 22 23  2  0  0  0
 23 24  1  0  0  0
 24 25  2  0  0  0
 25 26  1  0  0  0
 26 27  1  0  0  0
 26 28  2  0  0  0
 26 29  2  0  0  0
 17 18  1  0  0  0
 18 19  2  0  0  0
 37 38  2  0  0  0
 38 33  1  0  0  0
  7  1  1  0  0  0
 19 14  1  0  0  0
 25 20  1  0  0  0
 39 42  1  0  0  0
 41 43  1  0  0  0
 41 44  1  0  0  0
  5  8  1  0  0  0
  5  9  1  0  0  0
 12 13  1  0  0  0
 27 30  1  0  0  0
 27 31  1  0  0  0
M  END
> <minimizedAffinity>
-8.05248

> <CNNscore>
0.2297790945

> <CNNaffinity>
6.0204014778

> <CNN_VS>
1.3833624125

> <CNNaffinity_variance>
0.1382005513

$$$$
[H]N=C(c1c([H])c([H])c([H])c(Oc2c([H])c([H])c(N([H])[H])c([H])c2C(=O)N([H])c2c([H])c([H])c(-c3c([H])c([H])c([H])c([H])c3S(=O)(=O)N([H])[H])c([H])c2[H])c1[H])N([H])[H]


 44 47  0  0  0  0  0  0  0  0999 V2000
   36.1790  -17.8889   35.1282 C   0  0  0  0  0  0  0  0  0  0  0  0
   36.9146  -17.5613   33.9609 C   0  0  0  0  0  0  0  0  0  0  0  0
   37.8852  -18.4078   33.4969 C   0  0  0  0  0  0  0  0  0  0  0  0
   38.1195  -19.5679   34.1917 C   0  0  0  0  0  0  0  0  0  0  0  0
   39.1377  -20.4213   33.7003 N   0  0  0  0  0  0  0  0  0  0  0  0
   37.4029  -19.8865   35.3172 C   0  0  0  0  0  0  0  0  0  0  0  0
   36.3757  -19.0193   35.8192 C   0  0  0  0  0  0  0  0  0  0  0  0
   38.9928  -21.4309   33.6041 H   0  0  0  0  0  0  0  0  0  0  0  0
   40.0357  -19.9762   33.4517 H   0  0  0  0  0  0  0  0  0  0  0  0
   35.4461  -19.6703   36.7820 C   0  0  0  0  0  0  0  0  0  0  0  0
   35.7478  -19.3097   37.9956 O   0  0  0  0  0  0  0  0  0  0  0  0
   34.4392  -20.4922   36.5705 N   0  0  0  0  0  0  0  0  0  0  0  0
   33.9793  -20.2125   37.8537 H   0  0  0  0  0  0  0  0  0  0  0  0
   33.3845  -21.3532   36.3491 C   0  0  0  0  0  0  0  0  0  0  0  0
   32.4698  -21.0775   35.3058 C   0  0  0  0  0  0  0  0  0  0  0  0
   31.3538  -21.8544   35.0935 C   0  0  0  0  0  0  0  0  0  0  0  0
   31.0788  -22.9370   35.8893 C   0  0  0  0  0  0  0  0  0  0  0  0
   31.9506  -23.2309   36.9054 C   0  0  0  0  0  0  0  0  0  0  0  0
   33.0762  -22.4564   37.1286 C   0  0  0  0  0  0  0  0  0  0  0  0
   29.8909  -23.7443   35.7285 C   0  0  0  0  0  0  0  0  0  0  0  0
   29.8742  -24.8451   34.8927 C   0  0  0  0  0  0  0  0  0  0  0  0
   28.7424  -25.5965   34.7046 C   0  0  0  0  0  0  0  0  0  0  0  0
   27.5868  -25.2447   35.3675 C   0  0  0  0  0  0  0  0  0  0  0  0
   27.5839  -24.1591   36.2000 C   0  0  0  0  0  0  0  0  0  0  0  0
   28.7356  -23.4021   36.3874 C   0  0  0  0  0  0  0  0  0  0  0  0
   28.6587  -22.0748   37.4709 S   0  0  0  0  0  0  0  0  0  0  0  0
   26.9975  -21.8764   37.9962 N   0  0  0  0  0  0  0  0  0  0  0  0
   28.9456  -20.7831   36.7236 O   0  0  0  0  0  0  0  0  0  0  0  0
   29.5242  -22.2091   38.6902 O   0  0  0  0  0  0  0  0  0  0  0  0
   26.4055  -21.5004   37.2259 H   0  0  0  0  0  0  0  0  0  0  0  0
   26.6200  -22.7947   38.2828 H   0  0  0  0  0  0  0  0  0  0  0  0
   35.2250  -16.9235   35.5287 O   0  0  0  0  0  0  0  0  0  0  0  0
   35.7296  -13.4573   36.5919 C   0  0  0  0  0  0  0  0  0  0  0  0
   36.7853  -13.5661   37.4729 C   0  0  0  0  0  0  0  0  0  0  0  0
   37.3737  -14.7726   37.7585 C   0  0  0  0  0  0  0  0  0  0  0  0
   36.8496  -15.9027   37.1087 C   0  0  0  0  0  0  0  0  0  0  0  0
   35.8266  -15.8585   36.2415 C   0  0  0  0  0  0  0  0  0  0  0  0
   35.2483  -14.5847   35.9784 C   0  0  0  0  0  0  0  0  0  0  0  0
   35.6512  -11.2712   35.5531 N   0  0  0  0  0  0  0  0  0  0  0  0
   35.1224  -12.1549   36.2903 C   0  0  0  0  0  0  0  0  0  0  0  0
   33.8640  -11.8569   36.8768 N   0  0  0  0  0  0  0  0  0  0  0  0
   36.5336  -11.2803   35.0449 H   0  0  0  0  0  0  0  0  0  0  0  0
   33.8653  -11.0682   37.5738 H   0  0  0  0  0  0  0  0  0  0  0  0
   32.9715  -12.3241   36.6940 H   0  0  0  0  0  0  0  0  0  0  0  0
 39 40  2  0  0  0
 40 41  1  0  0  0
 40 33  1  0  0  0
 33 34  2  0  0  0
 34 35  1  0  0  0
 35 36  2  0  0  0
 36 37  1  0  0  0
 37 32  1  0  0  0
 32  1  1  0  0  0
  1  2  2  0  0  0
  2  3  1  0  0  0
  3  4  2  0  0  0
  4  5  1  0  0  0
  4  6  1  0  0  0
  6  7  2  0  0  0
  7 10  1  0  0  0
 10 11  2  0  0  0
 10 12  1  0  0  0
 12 14  1  0  0  0
 14 15  2  0  0  0
 15 16  1  0  0  0
 16 17  2  0  0  0
 17 20  1  0  0  0
 20 21  2  0  0  0
 21 22  1  0  0  0
 22 23  2  0  0  0
 23 24  1  0  0  0
 24 25  2  0  0  0
 25 26  1  0  0  0
 26 27  1  0  0  0
 26 28  2  0  0  0
 26 29  2  0  0  0
 17 18  1  0  0  0
 18 19  2  0  0  0
 37 38  2  0  0  0
 38 33  1  0  0  0
  7  1  1  0  0  0
 19 14  1  0  0  0
 25 20  1  0  0  0
 39 42  1  0  0  0
 41 43  1  0  0  0
 41 44  1  0  0  0
  5  8  1  0  0  0
  5  9  1  0  0  0
 12 13  1  0  0  0
 27 30  1  0  0  0
 27 31  1  0  0  0
M  END
> <minimizedAffinity>
-8.65856

> <CNNscore>
0.2192810476

> <CNNaffinity>
5.6945071220

> <CNN_VS>
1.2486975193

> <CNNaffinity_variance>
0.1875054985

$$$$
[H]N=C(c1c([H])c([H])c([H])c(Oc2c([H])c([H])c(N([H])[H])c([H])c2C(=O)N([H])c2c([H])c([H])c(-c3c([H])c([H])c([H])c([H])c3S(=O)(=O)N([H])[H])c([H])c2[H])c1[H])N([H])[H]


 44 47  0  0  0  0  0  0  0  0999 V2000
   34.0835  -18.4190   35.3380 C   0  0  0  0  0  0  0  0  0  0  0  0
   32.8662  -18.0346   34.7205 C   0  0  0  0  0  0  0  0  0  0  0  0
   31.7192  -18.7438   34.9559 C   0  0  0  0  0  0  0  0  0  0  0  0
   31.7875  -19.8256   35.7977 C   0  0  0  0  0  0  0  0  0  0  0  0
   30.5910  -20.5518   36.0154 N   0  0  0  0  0  0  0  0  0  0  0  0
   32.9644  -20.1924   36.3994 C   0  0  0  0  0  0  0  0  0  0  0  0
   34.1783  -19.4610   36.1742 C   0  0  0  0  0  0  0  0  0  0  0  0
   30.2935  -20.8283   36.9559 H   0  0  0  0  0  0  0  0  0  0  0  0
   30.0379  -20.7958   35.1781 H   0  0  0  0  0  0  0  0  0  0  0  0
   35.2453  -19.7289   37.1764 C   0  0  0  0  0  0  0  0  0  0  0  0
   34.7343  -19.7250   38.3733 O   0  0  0  0  0  0  0  0  0  0  0  0
   36.5321  -19.9547   37.0107 N   0  0  0  0  0  0  0  0  0  0  0  0
   36.5776  -20.4732   38.3012 H   0  0  0  0  0  0  0  0  0  0  0  0
   37.8800  -20.1913   36.8372 C   0  0  0  0  0  0  0  0  0  0  0  0
   38.5631  -19.5657   35.7680 C   0  0  0  0  0  0  0  0  0  0  0  0
   39.8863  -19.8304   35.4970 C   0  0  0  0  0  0  0  0  0  0  0  0
   40.6045  -20.7177   36.2573 C   0  0  0  0  0  0  0  0  0  0  0  0
   39.9692  -21.3353   37.3033 C   0  0  0  0  0  0  0  0  0  0  0  0
   38.6386  -21.0771   37.5851 C   0  0  0  0  0  0  0  0  0  0  0  0
   41.9795  -21.0588   35.9714 C   0  0  0  0  0  0  0  0  0  0  0  0
   42.3059  -22.1776   35.2284 C   0  0  0  0  0  0  0  0  0  0  0  0
   43.6082  -22.5306   34.9820 C   0  0  0  0  0  0  0  0  0  0  0  0
   44.6221  -21.7478   35.4897 C   0  0  0  0  0  0  0  0  0  0  0  0
   44.3188  -20.6357   36.2265 C   0  0  0  0  0  0  0  0  0  0  0  0
   42.9960  -20.2826   36.4716 C   0  0  0  0  0  0  0  0  0  0  0  0
   42.6983  -18.8570   37.3777 S   0  0  0  0  0  0  0  0  0  0  0  0
   42.1021  -17.6171   36.2906 N   0  0  0  0  0  0  0  0  0  0  0  0
   44.0126  -18.2812   37.8776 O   0  0  0  0  0  0  0  0  0  0  0  0
   41.7080  -19.0186   38.4945 O   0  0  0  0  0  0  0  0  0  0  0  0
   42.8629  -17.2677   35.6707 H   0  0  0  0  0  0  0  0  0  0  0  0
   41.3532  -18.0148   35.6998 H   0  0  0  0  0  0  0  0  0  0  0  0
   35.2073  -17.6303   34.9949 O   0  0  0  0  0  0  0  0  0  0  0  0
   34.5853  -14.4151   36.6304 C   0  0  0  0  0  0  0  0  0  0  0  0
   35.5675  -14.3776   37.5981 C   0  0  0  0  0  0  0  0  0  0  0  0
   36.4703  -15.3987   37.7589 C   0  0  0  0  0  0  0  0  0  0  0  0
   36.3498  -16.4941   36.8873 C   0  0  0  0  0  0  0  0  0  0  0  0
   35.4170  -16.5857   35.9271 C   0  0  0  0  0  0  0  0  0  0  0  0
   34.5024  -15.5024   35.7998 C   0  0  0  0  0  0  0  0  0  0  0  0
   32.5254  -13.3967   35.8663 N   0  0  0  0  0  0  0  0  0  0  0  0
   33.6370  -13.3062   36.4665 C   0  0  0  0  0  0  0  0  0  0  0  0
   33.9953  -12.0410   37.0025 N   0  0  0  0  0  0  0  0  0  0  0  0
   32.0841  -14.1963   35.4160 H   0  0  0  0  0  0  0  0  0  0  0  0
   34.1499  -11.2774   36.2949 H   0  0  0  0  0  0  0  0  0  0  0  0
   34.1171  -11.8011   37.9904 H   0  0  0  0  0  0  0  0  0  0  0  0
 39 40  2  0  0  0
 40 41  1  0  0  0
 40 33  1  0  0  0
 33 34  2  0  0  0
 34 35  1  0  0  0
 35 36  2  0  0  0
 36 37  1  0  0  0
 37 32  1  0  0  0
 32  1  1  0  0  0
  1  2  2  0  0  0
  2  3  1  0  0  0
  3  4  2  0  0  0
  4  5  1  0  0  0
  4  6  1  0  0  0
  6  7  2  0  0  0
  7 10  1  0  0  0
 10 11  2  0  0  0
 10 12  1  0  0  0
 12 14  1  0  0  0
 14 15  2  0  0  0
 15 16  1  0  0  0
 16 17  2  0  0  0
 17 20  1  0  0  0
 20 21  2  0  0  0
 21 22  1  0  0  0
 22 23  2  0  0  0
 23 24  1  0  0  0
 24 25  2  0  0  0
 25 26  1  0  0  0
 26 27  1  0  0  0
 26 28  2  0  0  0
 26 29  2  0  0  0
 17 18  1  0  0  0
 18 19  2  0  0  0
 37 38  2  0  0  0
 38 33  1  0  0  0
  7  1  1  0  0  0
 19 14  1  0  0  0
 25 20  1  0  0  0
 39 42  1  0  0  0
 41 43  1  0  0  0
 41 44  1  0  0  0
  5  8  1  0  0  0
  5  9  1  0  0  0
 12 13  1  0  0  0
 27 30  1  0  0  0
 27 31  1  0  0  0
M  END
> <minimizedAffinity>
-7.88883

> <CNNscore>
0.2142602652

> <CNNaffinity>
5.5633668900

> <CNN_VS>
1.1920084953

> <CNNaffinity_variance>
0.4141498208

$$$$
[H]N=C(c1c([H])c([H])c([H])c(Oc2c([H])c([H])c(N([H])[H])c([H])c2C(=O)N([H])c2c([H])c([H])c(-c3c([H])c([H])c([H])c([H])c3S(=O)(=O)N([H])[H])c([H])c2[H])c1[H])N([H])[H]


 44 47  0  0  0  0  0  0  0  0999 V2000
   34.6791  -18.1244   35.4208 C   0  0  0  0  0  0  0  0  0  0  0  0
   33.4343  -17.7219   34.8736 C   0  0  0  0  0  0  0  0  0  0  0  0
   32.3162  -18.4882   35.0655 C   0  0  0  0  0  0  0  0  0  0  0  0
   32.4404  -19.6443   35.7945 C   0  0  0  0  0  0  0  0  0  0  0  0
   31.2730  -20.4276   35.9682 N   0  0  0  0  0  0  0  0  0  0  0  0
   33.6439  -20.0292   36.3285 C   0  0  0  0  0  0  0  0  0  0  0  0
   34.8283  -19.2395   36.1475 C   0  0  0  0  0  0  0  0  0  0  0  0
   31.0098  -20.8044   36.8837 H   0  0  0  0  0  0  0  0  0  0  0  0
   30.7050  -20.6066   35.1244 H   0  0  0  0  0  0  0  0  0  0  0  0
   35.9299  -19.5689   37.0923 C   0  0  0  0  0  0  0  0  0  0  0  0
   35.6730  -19.0578   38.2614 O   0  0  0  0  0  0  0  0  0  0  0  0
   37.0352  -20.2598   36.9044 N   0  0  0  0  0  0  0  0  0  0  0  0
   37.1585  -20.3828   38.2849 H   0  0  0  0  0  0  0  0  0  0  0  0
   38.1929  -20.9835   36.7076 C   0  0  0  0  0  0  0  0  0  0  0  0
   39.0855  -20.6002   35.6793 C   0  0  0  0  0  0  0  0  0  0  0  0
   40.2116  -21.3340   35.3834 C   0  0  0  0  0  0  0  0  0  0  0  0
   40.5192  -22.4761   36.0779 C   0  0  0  0  0  0  0  0  0  0  0  0
   39.6744  -22.8689   37.0833 C   0  0  0  0  0  0  0  0  0  0  0  0
   38.5387  -22.1389   37.3896 C   0  0  0  0  0  0  0  0  0  0  0  0
   41.6643  -23.2992   35.7617 C   0  0  0  0  0  0  0  0  0  0  0  0
   42.9235  -23.0009   36.2473 C   0  0  0  0  0  0  0  0  0  0  0  0
   44.0233  -23.7540   35.9241 C   0  0  0  0  0  0  0  0  0  0  0  0
   43.8698  -24.8403   35.0904 C   0  0  0  0  0  0  0  0  0  0  0  0
   42.6311  -25.1522   34.6006 C   0  0  0  0  0  0  0  0  0  0  0  0
   41.5197  -24.3851   34.9334 C   0  0  0  0  0  0  0  0  0  0  0  0
   39.9965  -24.8594   34.3036 S   0  0  0  0  0  0  0  0  0  0  0  0
   39.1364  -25.7604   35.5378 N   0  0  0  0  0  0  0  0  0  0  0  0
   40.1931  -25.8824   33.1972 O   0  0  0  0  0  0  0  0  0  0  0  0
   39.1219  -23.7247   33.8550 O   0  0  0  0  0  0  0  0  0  0  0  0
   39.5621  -26.7009   35.6774 H   0  0  0  0  0  0  0  0  0  0  0  0
   39.1832  -25.2426   36.4309 H   0  0  0  0  0  0  0  0  0  0  0  0
   35.7684  -17.2692   35.1302 O   0  0  0  0  0  0  0  0  0  0  0  0
   34.8272  -14.1085   36.7188 C   0  0  0  0  0  0  0  0  0  0  0  0
   35.7718  -13.9828   37.7160 C   0  0  0  0  0  0  0  0  0  0  0  0
   36.7517  -14.9233   37.9132 C   0  0  0  0  0  0  0  0  0  0  0  0
   36.7512  -16.0299   37.0475 C   0  0  0  0  0  0  0  0  0  0  0  0
   35.8602  -16.2053   36.0596 C   0  0  0  0  0  0  0  0  0  0  0  0
   34.8622  -15.2037   35.8951 C   0  0  0  0  0  0  0  0  0  0  0  0
   32.6152  -13.3241   36.1220 N   0  0  0  0  0  0  0  0  0  0  0  0
   33.7947  -13.0844   36.5164 C   0  0  0  0  0  0  0  0  0  0  0  0
   34.1445  -11.7306   36.7634 N   0  0  0  0  0  0  0  0  0  0  0  0
   32.1657  -14.2081   35.8910 H   0  0  0  0  0  0  0  0  0  0  0  0
   34.1431  -11.1018   35.9192 H   0  0  0  0  0  0  0  0  0  0  0  0
   34.3943  -11.3118   37.6637 H   0  0  0  0  0  0  0  0  0  0  0  0
 39 40  2  0  0  0
 40 41  1  0  0  0
 40 33  1  0  0  0
 33 34  2  0  0  0
 34 35  1  0  0  0
 35 36  2  0  0  0
 36 37  1  0  0  0
 37 32  1  0  0  0
 32  1  1  0  0  0
  1  2  2  0  0  0
  2  3  1  0  0  0
  3  4  2  0  0  0
  4  5  1  0  0  0
  4  6  1  0  0  0
  6  7  2  0  0  0
  7 10  1  0  0  0
 10 11  2  0  0  0
 10 12  1  0  0  0
 12 14  1  0  0  0
 14 15  2  0  0  0
 15 16  1  0  0  0
 16 17  2  0  0  0
 17 20  1  0  0  0
 20 21  2  0  0  0
 21 22  1  0  0  0
 22 23  2  0  0  0
 23 24  1  0  0  0
 24 25  2  0  0  0
 25 26  1  0  0  0
 26 27  1  0  0  0
 26 28  2  0  0  0
 26 29  2  0  0  0
 17 18  1  0  0  0
 18 19  2  0  0  0
 37 38  2  0  0  0
 38 33  1  0  0  0
  7  1  1  0  0  0
 19 14  1  0  0  0
 25 20  1  0  0  0
 39 42  1  0  0  0
 41 43  1  0  0  0
 41 44  1  0  0  0
  5  8  1  0  0  0
  5  9  1  0  0  0
 12 13  1  0  0  0
 27 30  1  0  0  0
 27 31  1  0  0  0
M  END
> <minimizedAffinity>
-6.87231

> <CNNscore>
0.2137026787

> <CNNaffinity>
5.6825132370

> <CNN_VS>
1.2143683434

> <CNNaffinity_variance>
0.0683600157

$$$$
[H]N1C(=NC2([H])C([H])([H])C([H])([H])C([H])([H])C([H])([H])C([H])([H])C([H])([H])C2([H])[H])O[C@@]2([H])C([H])([H])C([H])([H])C([H])([H])C([H])([H])[C@@]2([H])S1(=O)=O


 22 24  0  0  0  0  0  0  0  0999 V2000
   36.5589  -24.9952   36.4987 O   0  0  0  0  0  0  0  0  0  0  0  0
   35.3759  -24.4919   37.2655 S   0  0  0  0  0  0  0  0  0  0  0  0
   34.4671  -25.6097   37.6950 O   0  0  0  0  0  0  0  0  0  0  0  0
   34.4645  -23.3378   36.3235 N   0  0  0  0  0  0  0  0  0  0  0  0
   33.7984  -22.2992   37.0086 C   0  0  0  0  0  0  0  0  0  0  0  0
   32.7634  -21.7675   36.4884 N   0  0  0  0  0  0  0  0  0  0  0  0
   34.2448  -21.8547   38.2199 O   0  0  0  0  0  0  0  0  0  0  0  0
   34.9622  -22.5715   39.1605 C   0  0  0  0  0  0  0  0  0  0  0  0
   33.9496  -23.1306   40.1714 C   0  0  0  0  0  0  0  0  0  0  0  0
   34.7028  -23.3751   41.4481 C   0  0  0  0  0  0  0  0  0  0  0  0
   36.0670  -23.9156   41.1731 C   0  0  0  0  0  0  0  0  0  0  0  0
   36.0817  -24.6317   39.8211 C   0  0  0  0  0  0  0  0  0  0  0  0
   35.8890  -23.6204   38.7100 C   0  0  0  0  0  0  0  0  0  0  0  0
   34.4688  -23.4818   35.3200 H   0  0  0  0  0  0  0  0  0  0  0  0
   32.2080  -22.1560   35.2235 C   0  0  0  0  0  0  0  0  0  0  0  0
   31.0215  -23.0780   35.3705 C   0  0  0  0  0  0  0  0  0  0  0  0
   29.6991  -22.3891   35.3651 C   0  0  0  0  0  0  0  0  0  0  0  0
   29.4565  -21.4671   36.5114 C   0  0  0  0  0  0  0  0  0  0  0  0
   29.0744  -20.0637   36.0557 C   0  0  0  0  0  0  0  0  0  0  0  0
   29.9313  -19.5656   34.9376 C   0  0  0  0  0  0  0  0  0  0  0  0
   31.3734  -19.7924   35.2567 C   0  0  0  0  0  0  0  0  0  0  0  0
   31.8788  -20.9321   34.4026 C   0  0  0  0  0  0  0  0  0  0  0  0
  1  2  2  0  0  0
  2  3  2  0  0  0
  2  4  1  0  0  0
  4  5  1  0  0  0
  5  6  2  0  0  0
  6 15  1  0  0  0
 15 16  1  0  0  0
 16 17  1  0  0  0
 17 18  1  0  0  0
 18 19  1  0  0  0
 19 20  1  0  0  0
 20 21  1  0  0  0
 21 22  1  0  0  0
  5  7  1  0  0  0
  7  8  1  0  0  0
  8  9  1  0  0  0
  9 10  1  0  0  0
 10 11  1  0  0  0
 11 12  1  0  0  0
 12 13  1  0  0  0
 13  2  1  0  0  0
 22 15  1  0  0  0
 13  8  1  0  0  0
  4 14  1  0  0  0
M  END
> <minimizedAffinity>
-3.71034

> <CNNscore>
0.5204128623

> <CNNaffinity>
4.2908663750

> <CNN_VS>
2.2330219746

> <CNNaffinity_variance>
0.0559502319

$$$$
[H]N1C(=NC2([H])C([H])([H])C([H])([H])C([H])([H])C([H])([H])C([H])([H])C([H])([H])C2([H])[H])O[C@@]2([H])C([H])([H])C([H])([H])C([H])([H])C([H])([H])[C@@]2([H])S1(=O)=O


 22 24  0  0  0  0  0  0  0  0999 V2000
   31.1642  -23.2447   37.7894 O   0  0  0  0  0  0  0  0  0  0  0  0
   32.1814  -22.6130   36.8910 S   0  0  0  0  0  0  0  0  0  0  0  0
   32.3435  -23.3723   35.6037 O   0  0  0  0  0  0  0  0  0  0  0  0
   33.7308  -22.4921   37.6878 N   0  0  0  0  0  0  0  0  0  0  0  0
   34.5661  -21.4044   37.3545 C   0  0  0  0  0  0  0  0  0  0  0  0
   35.8286  -21.5199   37.4861 N   0  0  0  0  0  0  0  0  0  0  0  0
   34.0437  -20.2304   36.8933 O   0  0  0  0  0  0  0  0  0  0  0  0
   32.8531  -20.0564   36.2109 C   0  0  0  0  0  0  0  0  0  0  0  0
   33.1881  -20.0500   34.7117 C   0  0  0  0  0  0  0  0  0  0  0  0
   32.0818  -19.3014   34.0244 C   0  0  0  0  0  0  0  0  0  0  0  0
   30.7564  -19.6221   34.6321 C   0  0  0  0  0  0  0  0  0  0  0  0
   30.8049  -21.0018   35.2917 C   0  0  0  0  0  0  0  0  0  0  0  0
   31.7255  -20.9567   36.4937 C   0  0  0  0  0  0  0  0  0  0  0  0
   33.9435  -23.2222   38.3580 H   0  0  0  0  0  0  0  0  0  0  0  0
   36.4837  -22.7053   37.9604 C   0  0  0  0  0  0  0  0  0  0  0  0
   37.2187  -23.4388   36.8644 C   0  0  0  0  0  0  0  0  0  0  0  0
   38.6630  -23.0874   36.7464 C   0  0  0  0  0  0  0  0  0  0  0  0
   38.9454  -21.6777   36.3516 C   0  0  0  0  0  0  0  0  0  0  0  0
   39.8759  -20.9758   37.3340 C   0  0  0  0  0  0  0  0  0  0  0  0
   39.5124  -21.2345   38.7600 C   0  0  0  0  0  0  0  0  0  0  0  0
   38.0473  -21.0214   38.9624 C   0  0  0  0  0  0  0  0  0  0  0  0
   37.3855  -22.3703   39.1243 C   0  0  0  0  0  0  0  0  0  0  0  0
  1  2  2  0  0  0
  2  3  2  0  0  0
  2  4  1  0  0  0
  4  5  1  0  0  0
  5  6  2  0  0  0
  6 15  1  0  0  0
 15 16  1  0  0  0
 16 17  1  0  0  0
 17 18  1  0  0  0
 18 19  1  0  0  0
 19 20  1  0  0  0
 20 21  1  0  0  0
 21 22  1  0  0  0
  5  7  1  0  0  0
  7  8  1  0  0  0
  8  9  1  0  0  0
  9 10  1  0  0  0
 10 11  1  0  0  0
 11 12  1  0  0  0
 12 13  1  0  0  0
 13  2  1  0  0  0
 22 15  1  0  0  0
 13  8  1  0  0  0
  4 14  1  0  0  0
M  END
> <minimizedAffinity>
-3.91394

> <CNNscore>
0.4804193676

> <CNNaffinity>
4.5069708824

> <CNN_VS>
2.1652359962

> <CNNaffinity_variance>
0.0902962461

$$$$
[H]N1C(=NC2([H])C([H])([H])C([H])([H])C([H])([H])C([H])([H])C([H])([H])C([H])([H])C2([H])[H])O[C@@]2([H])C([H])([H])C([H])([H])C([H])([H])C([H])([H])[C@@]2([H])S1(=O)=O


 22 24  0  0  0  0  0  0  0  0999 V2000
   43.6389  -16.9572   37.4411 O   0  0  0  0  0  0  0  0  0  0  0  0
   43.3328  -18.4045   37.6701 S   0  0  0  0  0  0  0  0  0  0  0  0
   44.5540  -19.2681   37.5195 O   0  0  0  0  0  0  0  0  0  0  0  0
   42.0932  -18.9630   36.5741 N   0  0  0  0  0  0  0  0  0  0  0  0
   41.2180  -19.9758   37.0215 C   0  0  0  0  0  0  0  0  0  0  0  0
   40.6668  -20.7491   36.1713 N   0  0  0  0  0  0  0  0  0  0  0  0
   40.9522  -20.1408   38.3505 O   0  0  0  0  0  0  0  0  0  0  0  0
   41.7716  -19.8085   39.4141 C   0  0  0  0  0  0  0  0  0  0  0  0
   42.5425  -21.0784   39.8049 C   0  0  0  0  0  0  0  0  0  0  0  0
   42.9492  -20.9128   41.2416 C   0  0  0  0  0  0  0  0  0  0  0  0
   43.3618  -19.5064   41.5255 C   0  0  0  0  0  0  0  0  0  0  0  0
   43.8468  -18.8351   40.2390 C   0  0  0  0  0  0  0  0  0  0  0  0
   42.6807  -18.6595   39.2884 C   0  0  0  0  0  0  0  0  0  0  0  0
   42.0717  -18.5173   35.6639 H   0  0  0  0  0  0  0  0  0  0  0  0
   40.8746  -20.6660   34.7539 C   0  0  0  0  0  0  0  0  0  0  0  0
   42.1634  -21.3208   34.3181 C   0  0  0  0  0  0  0  0  0  0  0  0
   42.0188  -22.7386   33.8796 C   0  0  0  0  0  0  0  0  0  0  0  0
   41.5873  -23.6927   34.9410 C   0  0  0  0  0  0  0  0  0  0  0  0
   40.3466  -24.4825   34.5409 C   0  0  0  0  0  0  0  0  0  0  0  0
   39.2953  -23.6276   33.9114 C   0  0  0  0  0  0  0  0  0  0  0  0
   39.0675  -22.4033   34.7374 C   0  0  0  0  0  0  0  0  0  0  0  0
   39.6779  -21.2217   34.0197 C   0  0  0  0  0  0  0  0  0  0  0  0
  1  2  2  0  0  0
  2  3  2  0  0  0
  2  4  1  0  0  0
  4  5  1  0  0  0
  5  6  2  0  0  0
  6 15  1  0  0  0
 15 16  1  0  0  0
 16 17  1  0  0  0
 17 18  1  0  0  0
 18 19  1  0  0  0
 19 20  1  0  0  0
 20 21  1  0  0  0
 21 22  1  0  0  0
  5  7  1  0  0  0
  7  8  1  0  0  0
  8  9  1  0  0  0
  9 10  1  0  0  0
 10 11  1  0  0  0
 11 12  1  0  0  0
 12 13  1  0  0  0
 13  2  1  0  0  0
 22 15  1  0  0  0
 13  8  1  0  0  0
  4 14  1  0  0  0
M  END
> <minimizedAffinity>
-3.88684

> <CNNscore>
0.4250098169

> <CNNaffinity>
4.2022094727

> <CNN_VS>
1.7859802246

> <CNNaffinity_variance>
0.0182310771

$$$$
[H]N1C(=NC2([H])C([H])([H])C([H])([H])C([H])([H])C([H])([H])C([H])([H])C([H])([H])C2([H])[H])O[C@@]2([H])C([H])([H])C([H])([H])C([H])([H])C([H])([H])[C@@]2([H])S1(=O)=O


 22 24  0  0  0  0  0  0  0  0999 V2000
   38.3023  -22.4643   40.8265 O   0  0  0  0  0  0  0  0  0  0  0  0
   37.9068  -22.1739   39.4123 S   0  0  0  0  0  0  0  0  0  0  0  0
   37.5334  -23.4237   38.6649 O   0  0  0  0  0  0  0  0  0  0  0  0
   39.1913  -21.3542   38.5590 N   0  0  0  0  0  0  0  0  0  0  0  0
   38.8367  -20.4348   37.5486 C   0  0  0  0  0  0  0  0  0  0  0  0
   39.6509  -20.2060   36.5950 N   0  0  0  0  0  0  0  0  0  0  0  0
   37.6355  -19.7865   37.5760 O   0  0  0  0  0  0  0  0  0  0  0  0
   36.4612  -20.2271   38.1591 C   0  0  0  0  0  0  0  0  0  0  0  0
   35.6345  -20.9038   37.0553 C   0  0  0  0  0  0  0  0  0  0  0  0
   34.1987  -20.8466   37.4933 C   0  0  0  0  0  0  0  0  0  0  0  0
   34.0741  -21.0846   38.9619 C   0  0  0  0  0  0  0  0  0  0  0  0
   35.2660  -21.9040   39.4606 C   0  0  0  0  0  0  0  0  0  0  0  0
   36.5293  -21.0744   39.3590 C   0  0  0  0  0  0  0  0  0  0  0  0
   40.1349  -21.5884   38.8460 H   0  0  0  0  0  0  0  0  0  0  0  0
   40.9367  -20.8301   36.4669 C   0  0  0  0  0  0  0  0  0  0  0  0
   40.9915  -21.8143   35.3233 C   0  0  0  0  0  0  0  0  0  0  0  0
   41.5074  -21.2475   34.0442 C   0  0  0  0  0  0  0  0  0  0  0  0
   40.6616  -20.1832   33.4321 C   0  0  0  0  0  0  0  0  0  0  0  0
   41.4450  -18.9038   33.1621 C   0  0  0  0  0  0  0  0  0  0  0  0
   42.3270  -18.5144   34.3035 C   0  0  0  0  0  0  0  0  0  0  0  0
   41.5606  -18.5678   35.5852 C   0  0  0  0  0  0  0  0  0  0  0  0
   42.0164  -19.7795   36.3650 C   0  0  0  0  0  0  0  0  0  0  0  0
  1  2  2  0  0  0
  2  3  2  0  0  0
  2  4  1  0  0  0
  4  5  1  0  0  0
  5  6  2  0  0  0
  6 15  1  0  0  0
 15 16  1  0  0  0
 16 17  1  0  0  0
 17 18  1  0  0  0
 18 19  1  0  0  0
 19 20  1  0  0  0
 20 21  1  0  0  0
 21 22  1  0  0  0
  5  7  1  0  0  0
  7  8  1  0  0  0
  8  9  1  0  0  0
  9 10  1  0  0  0
 10 11  1  0  0  0
 11 12  1  0  0  0
 12 13  1  0  0  0
 13  2  1  0  0  0
 22 15  1  0  0  0
 13  8  1  0  0  0
  4 14  1  0  0  0
M  END
> <minimizedAffinity>
-3.59619

> <CNNscore>
0.4087913334

> <CNNaffinity>
4.2786545753

> <CNN_VS>
1.7490769625

> <CNNaffinity_variance>
0.0308912396

$$$$
[H]N1C(=NC2([H])C([H])([H])C([H])([H])C([H])([H])C([H])([H])C([H])([H])C([H])([H])C2([H])[H])O[C@@]2([H])C([H])([H])C([H])([H])C([H])([H])C([H])([H])[C@@]2([H])S1(=O)=O


 22 24  0  0  0  0  0  0  0  0999 V2000
   35.4945  -18.5911   33.9153 O   0  0  0  0  0  0  0  0  0  0  0  0
   34.7073  -19.1241   35.0715 S   0  0  0  0  0  0  0  0  0  0  0  0
   34.2246  -18.0257   35.9772 O   0  0  0  0  0  0  0  0  0  0  0  0
   35.6516  -20.2630   35.9995 N   0  0  0  0  0  0  0  0  0  0  0  0
   34.9739  -21.3244   36.6368 C   0  0  0  0  0  0  0  0  0  0  0  0
   35.4777  -21.8526   37.6817 N   0  0  0  0  0  0  0  0  0  0  0  0
   33.7872  -21.7944   36.1523 O   0  0  0  0  0  0  0  0  0  0  0  0
   32.8497  -21.0943   35.4146 C   0  0  0  0  0  0  0  0  0  0  0  0
   31.7970  -20.5696   36.4026 C   0  0  0  0  0  0  0  0  0  0  0  0
   30.5364  -20.3497   35.6155 C   0  0  0  0  0  0  0  0  0  0  0  0
   30.8364  -19.7899   34.2644 C   0  0  0  0  0  0  0  0  0  0  0  0
   32.1700  -19.0407   34.2943 C   0  0  0  0  0  0  0  0  0  0  0  0
   33.3001  -20.0260   34.5100 C   0  0  0  0  0  0  0  0  0  0  0  0
   36.6509  -20.0944   36.0250 H   0  0  0  0  0  0  0  0  0  0  0  0
   36.7164  -21.4384   38.2762 C   0  0  0  0  0  0  0  0  0  0  0  0
   36.5758  -21.1201   39.7454 C   0  0  0  0  0  0  0  0  0  0  0  0
   36.8999  -22.2546   40.6572 C   0  0  0  0  0  0  0  0  0  0  0  0
   35.9907  -23.4320   40.5572 C   0  0  0  0  0  0  0  0  0  0  0  0
   36.7478  -24.7282   40.2926 C   0  0  0  0  0  0  0  0  0  0  0  0
   37.8021  -24.5783   39.2445 C   0  0  0  0  0  0  0  0  0  0  0  0
   37.2408  -23.8792   38.0490 C   0  0  0  0  0  0  0  0  0  0  0  0
   37.7876  -22.4707   38.0180 C   0  0  0  0  0  0  0  0  0  0  0  0
  1  2  2  0  0  0
  2  3  2  0  0  0
  2  4  1  0  0  0
  4  5  1  0  0  0
  5  6  2  0  0  0
  6 15  1  0  0  0
 15 16  1  0  0  0
 16 17  1  0  0  0
 17 18  1  0  0  0
 18 19  1  0  0  0
 19 20  1  0  0  0
 20 21  1  0  0  0
 21 22  1  0  0  0
  5  7  1  0  0  0
  7  8  1  0  0  0
  8  9  1  0  0  0
  9 10  1  0  0  0
 10 11  1  0  0  0
 11 12  1  0  0  0
 12 13  1  0  0  0
 13  2  1  0  0  0
 22 15  1  0  0  0
 13  8  1  0  0  0
  4 14  1  0  0  0
M  END
> <minimizedAffinity>
-3.79358

> <CNNscore>
0.4019398391

> <CNNaffinity>
4.3964843750

> <CNN_VS>
1.7671222687

> <CNNaffinity_variance>
0.0404591151

$$$$
[H]N1C(=NC2([H])C([H])([H])C([H])([H])C([H])([H])C([H])([H])C([H])([H])C([H])([H])C2([H])[H])O[C@@]2([H])C([H])([H])C([H])([H])C([H])([H])C([H])([H])[C@@]2([H])S1(=O)=O


 22 24  0  0  0  0  0  0  0  0999 V2000
   37.9036  -18.0434   33.6477 O   0  0  0  0  0  0  0  0  0  0  0  0
   38.3506  -19.2253   34.4502 S   0  0  0  0  0  0  0  0  0  0  0  0
   38.5361  -20.4478   33.5953 O   0  0  0  0  0  0  0  0  0  0  0  0
   37.2128  -19.5817   35.7263 N   0  0  0  0  0  0  0  0  0  0  0  0
   37.7115  -20.1316   36.9266 C   0  0  0  0  0  0  0  0  0  0  0  0
   36.9497  -20.8535   37.6499 N   0  0  0  0  0  0  0  0  0  0  0  0
   38.9970  -19.9029   37.3257 O   0  0  0  0  0  0  0  0  0  0  0  0
   40.0858  -19.6260   36.5187 C   0  0  0  0  0  0  0  0  0  0  0  0
   40.8094  -20.9568   36.2635 C   0  0  0  0  0  0  0  0  0  0  0  0
   42.2335  -20.6173   35.9266 C   0  0  0  0  0  0  0  0  0  0  0  0
   42.3080  -19.3936   35.0746 C   0  0  0  0  0  0  0  0  0  0  0  0
   41.0013  -19.2179   34.2985 C   0  0  0  0  0  0  0  0  0  0  0  0
   39.8795  -18.8904   35.2623 C   0  0  0  0  0  0  0  0  0  0  0  0
   36.2422  -19.3665   35.5285 H   0  0  0  0  0  0  0  0  0  0  0  0
   35.5851  -21.1585   37.3271 C   0  0  0  0  0  0  0  0  0  0  0  0
   35.3040  -22.6418   37.3422 C   0  0  0  0  0  0  0  0  0  0  0  0
   34.7662  -23.1558   38.6344 C   0  0  0  0  0  0  0  0  0  0  0  0
   35.6950  -23.0546   39.7963 C   0  0  0  0  0  0  0  0  0  0  0  0
   35.0724  -22.3128   40.9734 C   0  0  0  0  0  0  0  0  0  0  0  0
   34.3479  -21.0739   40.5579 C   0  0  0  0  0  0  0  0  0  0  0  0
   35.2027  -20.2642   39.6376 C   0  0  0  0  0  0  0  0  0  0  0  0
   34.6528  -20.3938   38.2360 C   0  0  0  0  0  0  0  0  0  0  0  0
  1  2  2  0  0  0
  2  3  2  0  0  0
  2  4  1  0  0  0
  4  5  1  0  0  0
  5  6  2  0  0  0
  6 15  1  0  0  0
 15 16  1  0  0  0
 16 17  1  0  0  0
 17 18  1  0  0  0
 18 19  1  0  0  0
 19 20  1  0  0  0
 20 21  1  0  0  0
 21 22  1  0  0  0
  5  7  1  0  0  0
  7  8  1  0  0  0
  8  9  1  0  0  0
  9 10  1  0  0  0
 10 11  1  0  0  0
 11 12  1  0  0  0
 12 13  1  0  0  0
 13  2  1  0  0  0
 22 15  1  0  0  0
 13  8  1  0  0  0
  4 14  1  0  0  0
M  END
> <minimizedAffinity>
-3.81343

> <CNNscore>
0.3596728444

> <CNNaffinity>
4.2530736923

> <CNN_VS>
1.5297150612

> <CNNaffinity_variance>
0.0840429142

$$$$
[H]N1C(=NC2([H])C([H])([H])C([H])([H])C([H])([H])C([H])([H])C([H])([H])C([H])([H])C2([H])[H])O[C@@]2([H])C([H])([H])C([H])([H])C([H])([H])C([H])([H])[C@@]2([H])S1(=O)=O


 22 24  0  0  0  0  0  0  0  0999 V2000
   34.1082  -15.9657   35.7680 O   0  0  0  0  0  0  0  0  0  0  0  0
   34.3825  -17.4329   35.6549 S   0  0  0  0  0  0  0  0  0  0  0  0
   34.1962  -18.1426   36.9670 O   0  0  0  0  0  0  0  0  0  0  0  0
   36.0012  -17.7234   35.0673 N   0  0  0  0  0  0  0  0  0  0  0  0
   36.2256  -18.8721   34.2786 C   0  0  0  0  0  0  0  0  0  0  0  0
   37.3863  -19.3982   34.2526 N   0  0  0  0  0  0  0  0  0  0  0  0
   35.2193  -19.4292   33.5431 O   0  0  0  0  0  0  0  0  0  0  0  0
   33.8622  -19.3703   33.8041 C   0  0  0  0  0  0  0  0  0  0  0  0
   33.4926  -20.6511   34.5674 C   0  0  0  0  0  0  0  0  0  0  0  0
   32.0263  -20.8837   34.3380 C   0  0  0  0  0  0  0  0  0  0  0  0
   31.2687  -19.5973   34.3518 C   0  0  0  0  0  0  0  0  0  0  0  0
   32.0241  -18.5558   35.1796 C   0  0  0  0  0  0  0  0  0  0  0  0
   33.3106  -18.1824   34.4725 C   0  0  0  0  0  0  0  0  0  0  0  0
   36.6986  -17.0360   35.3293 H   0  0  0  0  0  0  0  0  0  0  0  0
   38.5140  -18.8972   34.9851 C   0  0  0  0  0  0  0  0  0  0  0  0
   38.8050  -19.7072   36.2256 C   0  0  0  0  0  0  0  0  0  0  0  0
   39.8233  -20.7802   36.0383 C   0  0  0  0  0  0  0  0  0  0  0  0
   39.4337  -21.8712   35.0998 C   0  0  0  0  0  0  0  0  0  0  0  0
   40.4607  -22.0777   33.9925 C   0  0  0  0  0  0  0  0  0  0  0  0
   40.9361  -20.7920   33.3982 C   0  0  0  0  0  0  0  0  0  0  0  0
   39.7703  -19.9165   33.0702 C   0  0  0  0  0  0  0  0  0  0  0  0
   39.7174  -18.7926   34.0791 C   0  0  0  0  0  0  0  0  0  0  0  0
  1  2  2  0  0  0
  2  3  2  0  0  0
  2  4  1  0  0  0
  4  5  1  0  0  0
  5  6  2  0  0  0
  6 15  1  0  0  0
 15 16  1  0  0  0
 16 17  1  0  0  0
 17 18  1  0  0  0
 18 19  1  0  0  0
 19 20  1  0  0  0
 20 21  1  0  0  0
 21 22  1  0  0  0
  5  7  1  0  0  0
  7  8  1  0  0  0
  8  9  1  0  0  0
  9 10  1  0  0  0
 10 11  1  0  0  0
 11 12  1  0  0  0
 12 13  1  0  0  0
 13  2  1  0  0  0
 22 15  1  0  0  0
 13  8  1  0  0  0
  4 14  1  0  0  0
M  END
> <minimizedAffinity>
-5.00541

> <CNNscore>
0.3436009884

> <CNNaffinity>
4.8988738060

> <CNN_VS>
1.6832579374

> <CNNaffinity_variance>
0.0421179719

$$$$
[H]N1C(=NC2([H])C([H])([H])C([H])([H])C([H])([H])C([H])([H])C([H])([H])C([H])([H])C2([H])[H])O[C@@]2([H])C([H])([H])C([H])([H])C([H])([H])C([H])([H])[C@@]2([H])S1(=O)=O


 22 24  0  0  0  0  0  0  0  0999 V2000
   41.2523  -21.4528   38.9826 O   0  0  0  0  0  0  0  0  0  0  0  0
   40.3284  -21.8156   37.8622 S   0  0  0  0  0  0  0  0  0  0  0  0
   41.0770  -22.1554   36.6036 O   0  0  0  0  0  0  0  0  0  0  0  0
   39.2053  -20.5194   37.5325 N   0  0  0  0  0  0  0  0  0  0  0  0
   37.9174  -20.8589   37.0658 C   0  0  0  0  0  0  0  0  0  0  0  0
   37.2672  -20.0235   36.3558 N   0  0  0  0  0  0  0  0  0  0  0  0
   37.3565  -22.0678   37.3624 O   0  0  0  0  0  0  0  0  0  0  0  0
   38.0181  -23.2514   37.6358 C   0  0  0  0  0  0  0  0  0  0  0  0
   38.0924  -24.0419   36.3208 C   0  0  0  0  0  0  0  0  0  0  0  0
   38.2461  -25.4890   36.6940 C   0  0  0  0  0  0  0  0  0  0  0  0
   39.1486  -25.6479   37.8726 C   0  0  0  0  0  0  0  0  0  0  0  0
   40.1085  -24.4597   37.9587 C   0  0  0  0  0  0  0  0  0  0  0  0
   39.3314  -23.2039   38.2955 C   0  0  0  0  0  0  0  0  0  0  0  0
   39.5489  -19.5807   37.7011 H   0  0  0  0  0  0  0  0  0  0  0  0
   37.7593  -18.7277   35.9843 C   0  0  0  0  0  0  0  0  0  0  0  0
   37.8587  -18.5531   34.4878 C   0  0  0  0  0  0  0  0  0  0  0  0
   36.6664  -17.9150   33.8596 C   0  0  0  0  0  0  0  0  0  0  0  0
   35.4027  -18.7015   33.9471 C   0  0  0  0  0  0  0  0  0  0  0  0
   34.2646  -17.9024   34.5713 C   0  0  0  0  0  0  0  0  0  0  0  0
   34.6903  -17.1413   35.7845 C   0  0  0  0  0  0  0  0  0  0  0  0
   35.4611  -18.0318   36.7042 C   0  0  0  0  0  0  0  0  0  0  0  0
   36.9211  -17.6493   36.6281 C   0  0  0  0  0  0  0  0  0  0  0  0
  1  2  2  0  0  0
  2  3  2  0  0  0
  2  4  1  0  0  0
  4  5  1  0  0  0
  5  6  2  0  0  0
  6 15  1  0  0  0
 15 16  1  0  0  0
 16 17  1  0  0  0
 17 18  1  0  0  0
 18 19  1  0  0  0
 19 20  1  0  0  0
 20 21  1  0  0  0
 21 22  1  0  0  0
  5  7  1  0  0  0
  7  8  1  0  0  0
  8  9  1  0  0  0
  9 10  1  0  0  0
 10 11  1  0  0  0
 11 12  1  0  0  0
 12 13  1  0  0  0
 13  2  1  0  0  0
 22 15  1  0  0  0
 13  8  1  0  0  0
  4 14  1  0  0  0
M  END
> <minimizedAffinity>
-4.12418

> <CNNscore>
0.3337915242

> <CNNaffinity>
4.3212003708

> <CNN_VS>
1.4423800707

> <CNNaffinity_variance>
0.0538330749

$$$$
[H]N1C(=NC2([H])C([H])([H])C([H])([H])C([H])([H])C([H])([H])C([H])([H])C([H])([H])C2([H])[H])O[C@@]2([H])C([H])([H])C([H])([H])C([H])([H])C([H])([H])[C@@]2([H])S1(=O)=O


 22 24  0  0  0  0  0  0  0  0999 V2000
   36.9762  -19.9256   36.8432 O   0  0  0  0  0  0  0  0  0  0  0  0
   36.0409  -20.9498   37.4063 S   0  0  0  0  0  0  0  0  0  0  0  0
   36.5260  -22.3509   37.1581 O   0  0  0  0  0  0  0  0  0  0  0  0
   34.4378  -20.7680   36.7378 N   0  0  0  0  0  0  0  0  0  0  0  0
   33.3361  -21.1070   37.5521 C   0  0  0  0  0  0  0  0  0  0  0  0
   32.2442  -21.4764   37.0080 N   0  0  0  0  0  0  0  0  0  0  0  0
   33.4209  -21.0459   38.9133 O   0  0  0  0  0  0  0  0  0  0  0  0
   34.5594  -21.1837   39.6867 C   0  0  0  0  0  0  0  0  0  0  0  0
   34.6275  -22.6519   40.1333 C   0  0  0  0  0  0  0  0  0  0  0  0
   35.4557  -22.6850   41.3863 C   0  0  0  0  0  0  0  0  0  0  0  0
   36.6033  -21.7342   41.2982 C   0  0  0  0  0  0  0  0  0  0  0  0
   36.9711  -21.4947   39.8326 C   0  0  0  0  0  0  0  0  0  0  0  0
   35.8524  -20.7380   39.1466 C   0  0  0  0  0  0  0  0  0  0  0  0
   34.3902  -20.4205   35.7867 H   0  0  0  0  0  0  0  0  0  0  0  0
   32.0445  -21.5768   35.5905 C   0  0  0  0  0  0  0  0  0  0  0  0
   32.0505  -23.0063   35.1046 C   0  0  0  0  0  0  0  0  0  0  0  0
   30.7001  -23.6308   35.0050 C   0  0  0  0  0  0  0  0  0  0  0  0
   29.9787  -23.7981   36.2990 C   0  0  0  0  0  0  0  0  0  0  0  0
   28.5938  -23.1616   36.2772 C   0  0  0  0  0  0  0  0  0  0  0  0
   28.5919  -21.8029   35.6557 C   0  0  0  0  0  0  0  0  0  0  0  0
   29.6961  -20.9753   36.2290 C   0  0  0  0  0  0  0  0  0  0  0  0
   30.7857  -20.8454   35.1899 C   0  0  0  0  0  0  0  0  0  0  0  0
  1  2  2  0  0  0
  2  3  2  0  0  0
  2  4  1  0  0  0
  4  5  1  0  0  0
  5  6  2  0  0  0
  6 15  1  0  0  0
 15 16  1  0  0  0
 16 17  1  0  0  0
 17 18  1  0  0  0
 18 19  1  0  0  0
 19 20  1  0  0  0
 20 21  1  0  0  0
 21 22  1  0  0  0
  5  7  1  0  0  0
  7  8  1  0  0  0
  8  9  1  0  0  0
  9 10  1  0  0  0
 10 11  1  0  0  0
 11 12  1  0  0  0
 12 13  1  0  0  0
 13  2  1  0  0  0
 22 15  1  0  0  0
 13  8  1  0  0  0
  4 14  1  0  0  0
M  END
> <minimizedAffinity>
-4.36787

> <CNNscore>
0.3335657716

> <CNNaffinity>
4.1881299019

> <CNN_VS>
1.3970167637

> <CNNaffinity_variance>
0.0855650008

$$$$
[H]C(=NN([H])C(=S)N([H])C([H])([H])c1c([H])c([H])c(OC([H])(C([H])([H])[H])C([H])([H])[H])c([H])c1[H])c1c([H])c([H])c([N+](=O)[O-])c([H])c1[H]


 28 29  0  0  0  0  0  0  0  0999 V2000
   36.3314  -19.1224   36.2100 C   0  0  0  0  0  0  0  0  0  0  0  0
   36.5724  -19.7186   37.7040 S   0  0  0  0  0  0  0  0  0  0  0  0
   36.7609  -17.8163   35.9076 N   0  0  0  0  0  0  0  0  0  0  0  0
   36.9854  -17.5458   34.9319 H   0  0  0  0  0  0  0  0  0  0  0  0
   36.8947  -16.8327   36.9562 C   0  0  0  0  0  0  0  0  0  0  0  0
   33.9069  -13.7616   36.7128 C   0  0  0  0  0  0  0  0  0  0  0  0
   35.0252  -13.6344   37.5378 C   0  0  0  0  0  0  0  0  0  0  0  0
   35.9728  -14.6291   37.6031 C   0  0  0  0  0  0  0  0  0  0  0  0
   35.8537  -15.7827   36.8598 C   0  0  0  0  0  0  0  0  0  0  0  0
   34.7422  -15.8746   36.0596 C   0  0  0  0  0  0  0  0  0  0  0  0
   33.7648  -14.8881   35.9695 C   0  0  0  0  0  0  0  0  0  0  0  0
   32.9903  -12.7421   36.6824 O   0  0  0  0  0  0  0  0  0  0  0  0
   30.9853  -11.7991   37.6583 C   0  0  0  0  0  0  0  0  0  0  0  0
   32.4911  -12.0379   37.7619 C   0  0  0  0  0  0  0  0  0  0  0  0
   33.1503  -10.6588   37.8171 C   0  0  0  0  0  0  0  0  0  0  0  0
   35.6912  -19.9094   35.2088 N   0  0  0  0  0  0  0  0  0  0  0  0
   35.6659  -20.9683   35.2797 H   0  0  0  0  0  0  0  0  0  0  0  0
   35.0929  -19.3475   34.1295 N   0  0  0  0  0  0  0  0  0  0  0  0
   33.9518  -19.2396   33.6926 C   0  0  0  0  0  0  0  0  0  0  0  0
   32.7276  -19.7435   34.2666 C   0  0  0  0  0  0  0  0  0  0  0  0
   32.4562  -21.0679   34.5210 C   0  0  0  0  0  0  0  0  0  0  0  0
   31.2542  -21.4994   35.0782 C   0  0  0  0  0  0  0  0  0  0  0  0
   30.2615  -20.6060   35.4070 C   0  0  0  0  0  0  0  0  0  0  0  0
   30.5037  -19.2744   35.1641 C   0  0  0  0  0  0  0  0  0  0  0  0
   31.6889  -18.8625   34.6164 C   0  0  0  0  0  0  0  0  0  0  0  0
   29.0317  -21.0578   35.9781 N   0  0  0  0  0  0  0  0  0  0  0  0
   28.5229  -20.4097   36.9121 O   0  0  0  0  0  0  0  0  0  0  0  0
   28.4739  -22.1968   35.4568 O   0  0  0  0  0  0  0  0  0  0  0  0
 13 14  1  0  0  0
 14 15  1  0  0  0
 14 12  1  0  0  0
 12  6  1  0  0  0
  6  7  2  0  0  0
  7  8  1  0  0  0
  8  9  2  0  0  0
  9  5  1  0  0  0
  5  3  1  0  0  0
  3  1  1  0  0  0
  1  2  2  0  0  0
  1 16  1  0  0  0
 16 18  1  0  0  0
 18 19  2  0  0  0
 19 20  1  0  0  0
 20 21  2  0  0  0
 21 22  1  0  0  0
 22 23  2  0  0  0
 23 26  1  0  0  0
 26 27  2  0  0  0
 26 28  1  0  0  0
 23 24  1  0  0  0
 24 25  2  0  0  0
  9 10  1  0  0  0
 10 11  2  0  0  0
 11  6  1  0  0  0
 25 20  1  0  0  0
  3  4  1  0  0  0
 16 17  1  0  0  0
M  CHG 1  26   1
M  CHG 1  28  -1
M  END
> <minimizedAffinity>
-7.06834

> <CNNscore>
0.4328662753

> <CNNaffinity>
5.2556238174

> <CNN_VS>
2.2749822140

> <CNNaffinity_variance>
0.3482602239

$$$$
[H]C(=NN([H])C(=S)N([H])C([H])([H])c1c([H])c([H])c(OC([H])(C([H])([H])[H])C([H])([H])[H])c([H])c1[H])c1c([H])c([H])c([N+](=O)[O-])c([H])c1[H]


 28 29  0  0  0  0  0  0  0  0999 V2000
   34.2310  -15.4326   36.0986 C   0  0  0  0  0  0  0  0  0  0  0  0
   33.7220  -13.9379   36.4892 S   0  0  0  0  0  0  0  0  0  0  0  0
   35.6097  -15.7174   36.0997 N   0  0  0  0  0  0  0  0  0  0  0  0
   36.2750  -15.1134   35.5819 H   0  0  0  0  0  0  0  0  0  0  0  0
   36.1169  -16.8584   36.8247 C   0  0  0  0  0  0  0  0  0  0  0  0
   38.6257  -19.2826   34.3253 C   0  0  0  0  0  0  0  0  0  0  0  0
   37.7044  -18.3824   33.7883 C   0  0  0  0  0  0  0  0  0  0  0  0
   36.9085  -17.6134   34.6049 C   0  0  0  0  0  0  0  0  0  0  0  0
   36.9908  -17.7029   35.9771 C   0  0  0  0  0  0  0  0  0  0  0  0
   37.9069  -18.5979   36.4709 C   0  0  0  0  0  0  0  0  0  0  0  0
   38.7273  -19.3908   35.6742 C   0  0  0  0  0  0  0  0  0  0  0  0
   39.3964  -20.0268   33.4694 O   0  0  0  0  0  0  0  0  0  0  0  0
   41.6299  -20.7698   34.0359 C   0  0  0  0  0  0  0  0  0  0  0  0
   40.7402  -19.8551   33.1952 C   0  0  0  0  0  0  0  0  0  0  0  0
   41.1475  -18.4195   33.5304 C   0  0  0  0  0  0  0  0  0  0  0  0
   33.2953  -16.4519   35.7565 N   0  0  0  0  0  0  0  0  0  0  0  0
   32.4540  -16.6502   36.3729 H   0  0  0  0  0  0  0  0  0  0  0  0
   33.4364  -17.2090   34.6406 N   0  0  0  0  0  0  0  0  0  0  0  0
   32.9990  -18.2750   34.2198 C   0  0  0  0  0  0  0  0  0  0  0  0
   32.0754  -19.1755   34.8666 C   0  0  0  0  0  0  0  0  0  0  0  0
   30.7106  -19.1719   34.6941 C   0  0  0  0  0  0  0  0  0  0  0  0
   29.8643  -20.0668   35.3456 C   0  0  0  0  0  0  0  0  0  0  0  0
   30.3610  -21.0150   36.2092 C   0  0  0  0  0  0  0  0  0  0  0  0
   31.7222  -21.0432   36.4022 C   0  0  0  0  0  0  0  0  0  0  0  0
   32.5436  -20.1587   35.7562 C   0  0  0  0  0  0  0  0  0  0  0  0
   29.4852  -21.9289   36.8732 N   0  0  0  0  0  0  0  0  0  0  0  0
   29.5736  -22.0643   38.1080 O   0  0  0  0  0  0  0  0  0  0  0  0
   28.5841  -22.6149   36.1002 O   0  0  0  0  0  0  0  0  0  0  0  0
 13 14  1  0  0  0
 14 15  1  0  0  0
 14 12  1  0  0  0
 12  6  1  0  0  0
  6  7  2  0  0  0
  7  8  1  0  0  0
  8  9  2  0  0  0
  9  5  1  0  0  0
  5  3  1  0  0  0
  3  1  1  0  0  0
  1  2  2  0  0  0
  1 16  1  0  0  0
 16 18  1  0  0  0
 18 19  2  0  0  0
 19 20  1  0  0  0
 20 21  2  0  0  0
 21 22  1  0  0  0
 22 23  2  0  0  0
 23 26  1  0  0  0
 26 27  2  0  0  0
 26 28  1  0  0  0
 23 24  1  0  0  0
 24 25  2  0  0  0
  9 10  1  0  0  0
 10 11  2  0  0  0
 11  6  1  0  0  0
 25 20  1  0  0  0
  3  4  1  0  0  0
 16 17  1  0  0  0
M  CHG 1  26   1
M  CHG 1  28  -1
M  END
> <minimizedAffinity>
-6.10726

> <CNNscore>
0.4234986603

> <CNNaffinity>
4.9847559929

> <CNN_VS>
2.1110374928

> <CNNaffinity_variance>
0.3460419774

$$$$
[H]C(=NN([H])C(=S)N([H])C([H])([H])c1c([H])c([H])c(OC([H])(C([H])([H])[H])C([H])([H])[H])c([H])c1[H])c1c([H])c([H])c([N+](=O)[O-])c([H])c1[H]


 28 29  0  0  0  0  0  0  0  0999 V2000
   35.8038  -17.8179   34.7608 C   0  0  0  0  0  0  0  0  0  0  0  0
   36.9482  -18.9170   34.4029 S   0  0  0  0  0  0  0  0  0  0  0  0
   34.4460  -18.1821   34.6866 N   0  0  0  0  0  0  0  0  0  0  0  0
   33.7120  -17.5735   35.0947 H   0  0  0  0  0  0  0  0  0  0  0  0
   34.0564  -19.4124   34.0390 C   0  0  0  0  0  0  0  0  0  0  0  0
   30.1720  -20.6926   35.3392 C   0  0  0  0  0  0  0  0  0  0  0  0
   30.4177  -19.3767   34.9448 C   0  0  0  0  0  0  0  0  0  0  0  0
   31.6692  -18.9843   34.5310 C   0  0  0  0  0  0  0  0  0  0  0  0
   32.7220  -19.8716   34.4905 C   0  0  0  0  0  0  0  0  0  0  0  0
   32.4452  -21.1569   34.8849 C   0  0  0  0  0  0  0  0  0  0  0  0
   31.1917  -21.5876   35.3089 C   0  0  0  0  0  0  0  0  0  0  0  0
   28.9072  -21.0348   35.7436 O   0  0  0  0  0  0  0  0  0  0  0  0
   27.7546  -23.0593   36.4025 C   0  0  0  0  0  0  0  0  0  0  0  0
   28.5633  -21.8315   36.8193 C   0  0  0  0  0  0  0  0  0  0  0  0
   27.6823  -21.0330   37.7814 C   0  0  0  0  0  0  0  0  0  0  0  0
   36.1642  -16.4941   35.1472 N   0  0  0  0  0  0  0  0  0  0  0  0
   35.9816  -15.6687   34.5050 H   0  0  0  0  0  0  0  0  0  0  0  0
   36.7529  -16.2310   36.3400 N   0  0  0  0  0  0  0  0  0  0  0  0
   36.6576  -15.3794   37.2177 C   0  0  0  0  0  0  0  0  0  0  0  0
   35.7721  -14.2409   37.2609 C   0  0  0  0  0  0  0  0  0  0  0  0
   36.0540  -12.9959   36.7483 C   0  0  0  0  0  0  0  0  0  0  0  0
   35.1595  -11.9298   36.8178 C   0  0  0  0  0  0  0  0  0  0  0  0
   33.9280  -12.0725   37.4134 C   0  0  0  0  0  0  0  0  0  0  0  0
   33.6174  -13.3062   37.9355 C   0  0  0  0  0  0  0  0  0  0  0  0
   34.5047  -14.3462   37.8610 C   0  0  0  0  0  0  0  0  0  0  0  0
   33.0168  -10.9734   37.4802 N   0  0  0  0  0  0  0  0  0  0  0  0
   33.4686   -9.8155   37.5600 O   0  0  0  0  0  0  0  0  0  0  0  0
   31.6765  -11.2614   37.4522 O   0  0  0  0  0  0  0  0  0  0  0  0
 13 14  1  0  0  0
 14 15  1  0  0  0
 14 12  1  0  0  0
 12  6  1  0  0  0
  6  7  2  0  0  0
  7  8  1  0  0  0
  8  9  2  0  0  0
  9  5  1  0  0  0
  5  3  1  0  0  0
  3  1  1  0  0  0
  1  2  2  0  0  0
  1 16  1  0  0  0
 16 18  1  0  0  0
 18 19  2  0  0  0
 19 20  1  0  0  0
 20 21  2  0  0  0
 21 22  1  0  0  0
 22 23  2  0  0  0
 23 26  1  0  0  0
 26 27  2  0  0  0
 26 28  1  0  0  0
 23 24  1  0  0  0
 24 25  2  0  0  0
  9 10  1  0  0  0
 10 11  2  0  0  0
 11  6  1  0  0  0
 25 20  1  0  0  0
  3  4  1  0  0  0
 16 17  1  0  0  0
M  CHG 1  26   1
M  CHG 1  28  -1
M  END
> <minimizedAffinity>
-6.43029

> <CNNscore>
0.4051856995

> <CNNaffinity>
4.8890886307

> <CNN_VS>
1.9809887409

> <CNNaffinity_variance>
0.3900484145

$$$$
[H]C(=NN([H])C(=S)N([H])C([H])([H])c1c([H])c([H])c(OC([H])(C([H])([H])[H])C([H])([H])[H])c([H])c1[H])c1c([H])c([H])c([N+](=O)[O-])c([H])c1[H]


 28 29  0  0  0  0  0  0  0  0999 V2000
   34.4410   -9.8680   36.6990 C   0  0  0  0  0  0  0  0  0  0  0  0
   35.2284   -8.6858   35.9064 S   0  0  0  0  0  0  0  0  0  0  0  0
   34.8155  -11.2092   36.4923 N   0  0  0  0  0  0  0  0  0  0  0  0
   35.4709  -11.4640   35.7300 H   0  0  0  0  0  0  0  0  0  0  0  0
   34.2897  -12.2513   37.3423 C   0  0  0  0  0  0  0  0  0  0  0  0
   35.7584  -16.1254   36.2233 C   0  0  0  0  0  0  0  0  0  0  0  0
   34.4568  -15.7195   35.9260 C   0  0  0  0  0  0  0  0  0  0  0  0
   34.0032  -14.4739   36.2925 C   0  0  0  0  0  0  0  0  0  0  0  0
   34.8133  -13.5847   36.9637 C   0  0  0  0  0  0  0  0  0  0  0  0
   36.0868  -14.0163   37.2398 C   0  0  0  0  0  0  0  0  0  0  0  0
   36.5779  -15.2688   36.8839 C   0  0  0  0  0  0  0  0  0  0  0  0
   36.1636  -17.3771   35.8366 O   0  0  0  0  0  0  0  0  0  0  0  0
   35.5255  -18.7339   33.9357 C   0  0  0  0  0  0  0  0  0  0  0  0
   36.5361  -17.7773   34.5672 C   0  0  0  0  0  0  0  0  0  0  0  0
   37.8649  -18.5311   34.6420 C   0  0  0  0  0  0  0  0  0  0  0  0
   33.3791   -9.5572   37.5975 N   0  0  0  0  0  0  0  0  0  0  0  0
   33.3404   -9.9875   38.5672 H   0  0  0  0  0  0  0  0  0  0  0  0
   32.3781   -8.7080   37.2575 N   0  0  0  0  0  0  0  0  0  0  0  0
   31.1566   -8.6746   37.3639 C   0  0  0  0  0  0  0  0  0  0  0  0
   30.2881   -9.6589   37.9632 C   0  0  0  0  0  0  0  0  0  0  0  0
   29.3036   -9.3923   38.8863 C   0  0  0  0  0  0  0  0  0  0  0  0
   28.4922  -10.3840   39.4334 C   0  0  0  0  0  0  0  0  0  0  0  0
   28.6384  -11.7027   39.0710 C   0  0  0  0  0  0  0  0  0  0  0  0
   29.6149  -12.0005   38.1497 C   0  0  0  0  0  0  0  0  0  0  0  0
   30.4060  -11.0173   37.6191 C   0  0  0  0  0  0  0  0  0  0  0  0
   27.8015  -12.7134   39.6375 N   0  0  0  0  0  0  0  0  0  0  0  0
   26.9970  -13.3164   38.9025 O   0  0  0  0  0  0  0  0  0  0  0  0
   27.9343  -12.9648   40.9789 O   0  0  0  0  0  0  0  0  0  0  0  0
 13 14  1  0  0  0
 14 15  1  0  0  0
 14 12  1  0  0  0
 12  6  1  0  0  0
  6  7  2  0  0  0
  7  8  1  0  0  0
  8  9  2  0  0  0
  9  5  1  0  0  0
  5  3  1  0  0  0
  3  1  1  0  0  0
  1  2  2  0  0  0
  1 16  1  0  0  0
 16 18  1  0  0  0
 18 19  2  0  0  0
 19 20  1  0  0  0
 20 21  2  0  0  0
 21 22  1  0  0  0
 22 23  2  0  0  0
 23 26  1  0  0  0
 26 27  2  0  0  0
 26 28  1  0  0  0
 23 24  1  0  0  0
 24 25  2  0  0  0
  9 10  1  0  0  0
 10 11  2  0  0  0
 11  6  1  0  0  0
 25 20  1  0  0  0
  3  4  1  0  0  0
 16 17  1  0  0  0
M  CHG 1  26   1
M  CHG 1  28  -1
M  END
> <minimizedAffinity>
-7.28765

> <CNNscore>
0.3851597607

> <CNNaffinity>
6.0339765549

> <CNN_VS>
2.3240449429

> <CNNaffinity_variance>
0.0904750079

$$$$
[H]C(=NN([H])C(=S)N([H])C([H])([H])c1c([H])c([H])c(OC([H])(C([H])([H])[H])C([H])([H])[H])c([H])c1[H])c1c([H])c([H])c([N+](=O)[O-])c([H])c1[H]


 28 29  0  0  0  0  0  0  0  0999 V2000
   37.6737  -18.9614   34.1556 C   0  0  0  0  0  0  0  0  0  0  0  0
   38.9632  -19.5534   33.3603 S   0  0  0  0  0  0  0  0  0  0  0  0
   36.3831  -19.4051   33.8102 N   0  0  0  0  0  0  0  0  0  0  0  0
   36.2183  -20.3922   33.5382 H   0  0  0  0  0  0  0  0  0  0  0  0
   35.2681  -18.4879   33.8305 C   0  0  0  0  0  0  0  0  0  0  0  0
   31.8683  -20.1012   35.8937 C   0  0  0  0  0  0  0  0  0  0  0  0
   31.7275  -19.3099   34.7528 C   0  0  0  0  0  0  0  0  0  0  0  0
   32.8287  -18.8013   34.1045 C   0  0  0  0  0  0  0  0  0  0  0  0
   34.1058  -19.0530   34.5552 C   0  0  0  0  0  0  0  0  0  0  0  0
   34.2076  -19.8344   35.6791 C   0  0  0  0  0  0  0  0  0  0  0  0
   33.1155  -20.3648   36.3592 C   0  0  0  0  0  0  0  0  0  0  0  0
   30.7398  -20.5848   36.5043 O   0  0  0  0  0  0  0  0  0  0  0  0
   28.3657  -20.9546   36.8016 C   0  0  0  0  0  0  0  0  0  0  0  0
   29.5883  -21.0380   35.8887 C   0  0  0  0  0  0  0  0  0  0  0  0
   29.7576  -22.5121   35.5173 C   0  0  0  0  0  0  0  0  0  0  0  0
   37.8402  -18.0007   35.1952 N   0  0  0  0  0  0  0  0  0  0  0  0
   38.3829  -17.1037   35.0283 H   0  0  0  0  0  0  0  0  0  0  0  0
   37.3203  -18.1874   36.4335 N   0  0  0  0  0  0  0  0  0  0  0  0
   36.6507  -17.5393   37.2312 C   0  0  0  0  0  0  0  0  0  0  0  0
   36.1395  -16.1983   37.0812 C   0  0  0  0  0  0  0  0  0  0  0  0
   34.9846  -15.8587   36.4156 C   0  0  0  0  0  0  0  0  0  0  0  0
   34.5369  -14.5441   36.3015 C   0  0  0  0  0  0  0  0  0  0  0  0
   35.2409  -13.5022   36.8588 C   0  0  0  0  0  0  0  0  0  0  0  0
   36.4003  -13.8106   37.5308 C   0  0  0  0  0  0  0  0  0  0  0  0
   36.8299  -15.1062   37.6363 C   0  0  0  0  0  0  0  0  0  0  0  0
   34.7740  -12.1568   36.7366 N   0  0  0  0  0  0  0  0  0  0  0  0
   33.7770  -11.7994   37.3918 O   0  0  0  0  0  0  0  0  0  0  0  0
   35.4615  -11.3240   35.8917 O   0  0  0  0  0  0  0  0  0  0  0  0
 13 14  1  0  0  0
 14 15  1  0  0  0
 14 12  1  0  0  0
 12  6  1  0  0  0
  6  7  2  0  0  0
  7  8  1  0  0  0
  8  9  2  0  0  0
  9  5  1  0  0  0
  5  3  1  0  0  0
  3  1  1  0  0  0
  1  2  2  0  0  0
  1 16  1  0  0  0
 16 18  1  0  0  0
 18 19  2  0  0  0
 19 20  1  0  0  0
 20 21  2  0  0  0
 21 22  1  0  0  0
 22 23  2  0  0  0
 23 26  1  0  0  0
 26 27  2  0  0  0
 26 28  1  0  0  0
 23 24  1  0  0  0
 24 25  2  0  0  0
  9 10  1  0  0  0
 10 11  2  0  0  0
 11  6  1  0  0  0
 25 20  1  0  0  0
  3  4  1  0  0  0
 16 17  1  0  0  0
M  CHG 1  26   1
M  CHG 1  28  -1
M  END
> <minimizedAffinity>
-7.31715

> <CNNscore>
0.3310941458

> <CNNaffinity>
5.1404771805

> <CNN_VS>
1.7019819021

> <CNNaffinity_variance>
0.3146100640

$$$$
[H]C(=NN([H])C(=S)N([H])C([H])([H])c1c([H])c([H])c(OC([H])(C([H])([H])[H])C([H])([H])[H])c([H])c1[H])c1c([H])c([H])c([N+](=O)[O-])c([H])c1[H]


 28 29  0  0  0  0  0  0  0  0999 V2000
   33.1047   -9.2648   37.0768 C   0  0  0  0  0  0  0  0  0  0  0  0
   33.5540   -7.9167   36.2853 S   0  0  0  0  0  0  0  0  0  0  0  0
   33.9715  -10.3736   37.1042 N   0  0  0  0  0  0  0  0  0  0  0  0
   34.8901  -10.3389   36.6240 H   0  0  0  0  0  0  0  0  0  0  0  0
   33.5913  -11.5780   37.8041 C   0  0  0  0  0  0  0  0  0  0  0  0
   35.4928  -15.0327   36.1107 C   0  0  0  0  0  0  0  0  0  0  0  0
   36.2271  -13.9248   36.5360 C   0  0  0  0  0  0  0  0  0  0  0  0
   35.6005  -12.8262   37.0765 C   0  0  0  0  0  0  0  0  0  0  0  0
   34.2311  -12.7788   37.2173 C   0  0  0  0  0  0  0  0  0  0  0  0
   33.5404  -13.8850   36.7889 C   0  0  0  0  0  0  0  0  0  0  0  0
   34.1419  -15.0124   36.2380 C   0  0  0  0  0  0  0  0  0  0  0  0
   36.1636  -16.1038   35.5786 O   0  0  0  0  0  0  0  0  0  0  0  0
   36.1691  -17.7555   37.3487 C   0  0  0  0  0  0  0  0  0  0  0  0
   35.9625  -17.4403   35.8678 C   0  0  0  0  0  0  0  0  0  0  0  0
   36.9762  -18.2852   35.0946 C   0  0  0  0  0  0  0  0  0  0  0  0
   31.8448   -9.3313   37.7401 N   0  0  0  0  0  0  0  0  0  0  0  0
   31.7273   -8.9608   38.7280 H   0  0  0  0  0  0  0  0  0  0  0  0
   30.7499   -9.8676   37.1466 N   0  0  0  0  0  0  0  0  0  0  0  0
   29.8688  -10.6664   37.4469 C   0  0  0  0  0  0  0  0  0  0  0  0
   29.6997  -11.3793   38.6900 C   0  0  0  0  0  0  0  0  0  0  0  0
   28.8371  -11.0210   39.6999 C   0  0  0  0  0  0  0  0  0  0  0  0
   28.7141  -11.7481   40.8821 C   0  0  0  0  0  0  0  0  0  0  0  0
   29.4631  -12.8805   41.1017 C   0  0  0  0  0  0  0  0  0  0  0  0
   30.3349  -13.2640   40.1098 C   0  0  0  0  0  0  0  0  0  0  0  0
   30.4468  -12.5414   38.9524 C   0  0  0  0  0  0  0  0  0  0  0  0
   29.3303  -13.6201   42.3176 N   0  0  0  0  0  0  0  0  0  0  0  0
   30.3408  -13.8241   43.0163 O   0  0  0  0  0  0  0  0  0  0  0  0
   28.0782  -14.0695   42.6500 O   0  0  0  0  0  0  0  0  0  0  0  0
 13 14  1  0  0  0
 14 15  1  0  0  0
 14 12  1  0  0  0
 12  6  1  0  0  0
  6  7  2  0  0  0
  7  8  1  0  0  0
  8  9  2  0  0  0
  9  5  1  0  0  0
  5  3  1  0  0  0
  3  1  1  0  0  0
  1  2  2  0  0  0
  1 16  1  0  0  0
 16 18  1  0  0  0
 18 19  2  0  0  0
 19 20  1  0  0  0
 20 21  2  0  0  0
 21 22  1  0  0  0
 22 23  2  0  0  0
 23 26  1  0  0  0
 26 27  2  0  0  0
 26 28  1  0  0  0
 23 24  1  0  0  0
 24 25  2  0  0  0
  9 10  1  0  0  0
 10 11  2  0  0  0
 11  6  1  0  0  0
 25 20  1  0  0  0
  3  4  1  0  0  0
 16 17  1  0  0  0
M  CHG 1  26   1
M  CHG 1  28  -1
M  END
> <minimizedAffinity>
-7.57716

> <CNNscore>
0.3261728883

> <CNNaffinity>
5.7844777107

> <CNN_VS>
1.8867398500

> <CNNaffinity_variance>
0.2620535791

$$$$
[H]C(=NN([H])C(=S)N([H])C([H])([H])c1c([H])c([H])c(OC([H])(C([H])([H])[H])C([H])([H])[H])c([H])c1[H])c1c([H])c([H])c([N+](=O)[O-])c([H])c1[H]


 28 29  0  0  0  0  0  0  0  0999 V2000
   34.4667  -16.0991   35.9355 C   0  0  0  0  0  0  0  0  0  0  0  0
   34.4109  -14.5093   36.2746 S   0  0  0  0  0  0  0  0  0  0  0  0
   35.6453  -16.8226   36.1984 N   0  0  0  0  0  0  0  0  0  0  0  0
   36.5601  -16.4925   35.8381 H   0  0  0  0  0  0  0  0  0  0  0  0
   35.5954  -18.0382   36.9761 C   0  0  0  0  0  0  0  0  0  0  0  0
   39.2886  -20.2202   36.8461 C   0  0  0  0  0  0  0  0  0  0  0  0
   38.2424  -20.5970   37.6892 C   0  0  0  0  0  0  0  0  0  0  0  0
   37.0656  -19.8856   37.7175 C   0  0  0  0  0  0  0  0  0  0  0  0
   36.8769  -18.7796   36.9183 C   0  0  0  0  0  0  0  0  0  0  0  0
   37.9259  -18.4375   36.1017 C   0  0  0  0  0  0  0  0  0  0  0  0
   39.1293  -19.1343   36.0479 C   0  0  0  0  0  0  0  0  0  0  0  0
   40.4420  -20.9619   36.8542 O   0  0  0  0  0  0  0  0  0  0  0  0
   41.4194  -19.5512   38.5619 C   0  0  0  0  0  0  0  0  0  0  0  0
   41.5932  -20.7046   37.5746 C   0  0  0  0  0  0  0  0  0  0  0  0
   42.7116  -20.2948   36.6151 C   0  0  0  0  0  0  0  0  0  0  0  0
   33.3357  -16.7623   35.3763 N   0  0  0  0  0  0  0  0  0  0  0  0
   32.3548  -16.5602   35.7283 H   0  0  0  0  0  0  0  0  0  0  0  0
   33.4597  -17.6745   34.3807 N   0  0  0  0  0  0  0  0  0  0  0  0
   32.9916  -18.7758   34.1112 C   0  0  0  0  0  0  0  0  0  0  0  0
   32.0365  -19.5469   34.8698 C   0  0  0  0  0  0  0  0  0  0  0  0
   32.3530  -20.4870   35.8229 C   0  0  0  0  0  0  0  0  0  0  0  0
   31.3877  -21.2039   36.5269 C   0  0  0  0  0  0  0  0  0  0  0  0
   30.0462  -21.0033   36.2993 C   0  0  0  0  0  0  0  0  0  0  0  0
   29.6986  -20.0694   35.3516 C   0  0  0  0  0  0  0  0  0  0  0  0
   30.6563  -19.3711   34.6664 C   0  0  0  0  0  0  0  0  0  0  0  0
   29.0630  -21.7433   37.0262 N   0  0  0  0  0  0  0  0  0  0  0  0
   28.8275  -21.4378   38.2104 O   0  0  0  0  0  0  0  0  0  0  0  0
   28.4255  -22.7632   36.3677 O   0  0  0  0  0  0  0  0  0  0  0  0
 13 14  1  0  0  0
 14 15  1  0  0  0
 14 12  1  0  0  0
 12  6  1  0  0  0
  6  7  2  0  0  0
  7  8  1  0  0  0
  8  9  2  0  0  0
  9  5  1  0  0  0
  5  3  1  0  0  0
  3  1  1  0  0  0
  1  2  2  0  0  0
  1 16  1  0  0  0
 16 18  1  0  0  0
 18 19  2  0  0  0
 19 20  1  0  0  0
 20 21  2  0  0  0
 21 22  1  0  0  0
 22 23  2  0  0  0
 23 26  1  0  0  0
 26 27  2  0  0  0
 26 28  1  0  0  0
 23 24  1  0  0  0
 24 25  2  0  0  0
  9 10  1  0  0  0
 10 11  2  0  0  0
 11  6  1  0  0  0
 25 20  1  0  0  0
  3  4  1  0  0  0
 16 17  1  0  0  0
M  CHG 1  26   1
M  CHG 1  28  -1
M  END
> <minimizedAffinity>
-5.29306

> <CNNscore>
0.3243978918

> <CNNaffinity>
4.4698219299

> <CNN_VS>
1.4500007629

> <CNNaffinity_variance>
0.9484853745

$$$$
[H]C(=NN([H])C(=S)N([H])C([H])([H])c1c([H])c([H])c(OC([H])(C([H])([H])[H])C([H])([H])[H])c([H])c1[H])c1c([H])c([H])c([N+](=O)[O-])c([H])c1[H]


 28 29  0  0  0  0  0  0  0  0999 V2000
   36.2738  -14.2314   36.9496 C   0  0  0  0  0  0  0  0  0  0  0  0
   37.6700  -13.5934   37.4875 S   0  0  0  0  0  0  0  0  0  0  0  0
   36.3065  -15.3550   36.1021 N   0  0  0  0  0  0  0  0  0  0  0  0
   36.2739  -15.2416   35.0718 H   0  0  0  0  0  0  0  0  0  0  0  0
   36.3865  -16.6849   36.6588 C   0  0  0  0  0  0  0  0  0  0  0  0
   33.0873  -19.1600   35.4726 C   0  0  0  0  0  0  0  0  0  0  0  0
   34.1000  -19.6362   36.3063 C   0  0  0  0  0  0  0  0  0  0  0  0
   35.1500  -18.8284   36.6762 C   0  0  0  0  0  0  0  0  0  0  0  0
   35.2405  -17.5252   36.2394 C   0  0  0  0  0  0  0  0  0  0  0  0
   34.2278  -17.0898   35.4213 C   0  0  0  0  0  0  0  0  0  0  0  0
   33.1517  -17.8795   35.0278 C   0  0  0  0  0  0  0  0  0  0  0  0
   32.0617  -20.0042   35.1323 O   0  0  0  0  0  0  0  0  0  0  0  0
   31.4658  -22.2246   35.8913 C   0  0  0  0  0  0  0  0  0  0  0  0
   31.2474  -20.7156   35.9932 C   0  0  0  0  0  0  0  0  0  0  0  0
   29.7828  -20.4600   35.6343 C   0  0  0  0  0  0  0  0  0  0  0  0
   35.0225  -13.6635   37.3284 N   0  0  0  0  0  0  0  0  0  0  0  0
   34.2535  -14.2649   37.7454 H   0  0  0  0  0  0  0  0  0  0  0  0
   34.7587  -12.3425   37.1729 N   0  0  0  0  0  0  0  0  0  0  0  0
   33.8130  -11.5879   37.3751 C   0  0  0  0  0  0  0  0  0  0  0  0
   32.5139  -11.9131   37.9125 C   0  0  0  0  0  0  0  0  0  0  0  0
   32.2772  -12.8063   38.9315 C   0  0  0  0  0  0  0  0  0  0  0  0
   30.9990  -13.0827   39.4123 C   0  0  0  0  0  0  0  0  0  0  0  0
   29.8906  -12.4647   38.8819 C   0  0  0  0  0  0  0  0  0  0  0  0
   30.0956  -11.5662   37.8613 C   0  0  0  0  0  0  0  0  0  0  0  0
   31.3565  -11.3029   37.3974 C   0  0  0  0  0  0  0  0  0  0  0  0
   28.5832  -12.7544   39.3814 N   0  0  0  0  0  0  0  0  0  0  0  0
   28.4621  -13.2102   40.5341 O   0  0  0  0  0  0  0  0  0  0  0  0
   27.5207  -12.5103   38.5497 O   0  0  0  0  0  0  0  0  0  0  0  0
 13 14  1  0  0  0
 14 15  1  0  0  0
 14 12  1  0  0  0
 12  6  1  0  0  0
  6  7  2  0  0  0
  7  8  1  0  0  0
  8  9  2  0  0  0
  9  5  1  0  0  0
  5  3  1  0  0  0
  3  1  1  0  0  0
  1  2  2  0  0  0
  1 16  1  0  0  0
 16 18  1  0  0  0
 18 19  2  0  0  0
 19 20  1  0  0  0
 20 21  2  0  0  0
 21 22  1  0  0  0
 22 23  2  0  0  0
 23 26  1  0  0  0
 26 27  2  0  0  0
 26 28  1  0  0  0
 23 24  1  0  0  0
 24 25  2  0  0  0
  9 10  1  0  0  0
 10 11  2  0  0  0
 11  6  1  0  0  0
 25 20  1  0  0  0
  3  4  1  0  0  0
 16 17  1  0  0  0
M  CHG 1  26   1
M  CHG 1  28  -1
M  END
> <minimizedAffinity>
-6.74996

> <CNNscore>
0.3224825859

> <CNNaffinity>
5.3149862289

> <CNN_VS>
1.7139904499

> <CNNaffinity_variance>
0.2784184217

$$$$
[H]C(=NN([H])C(=S)N([H])C([H])([H])c1c([H])c([H])c(OC([H])(C([H])([H])[H])C([H])([H])[H])c([H])c1[H])c1c([H])c([H])c([N+](=O)[O-])c([H])c1[H]


 28 29  0  0  0  0  0  0  0  0999 V2000
   34.1225  -15.1732   36.1711 C   0  0  0  0  0  0  0  0  0  0  0  0
   33.4481  -13.7213   36.4587 S   0  0  0  0  0  0  0  0  0  0  0  0
   35.5206  -15.3162   36.2534 N   0  0  0  0  0  0  0  0  0  0  0  0
   36.1484  -14.7063   35.6972 H   0  0  0  0  0  0  0  0  0  0  0  0
   36.1005  -16.3178   37.1168 C   0  0  0  0  0  0  0  0  0  0  0  0
   38.0394  -19.3870   34.8279 C   0  0  0  0  0  0  0  0  0  0  0  0
   37.4764  -18.2634   34.2213 C   0  0  0  0  0  0  0  0  0  0  0  0
   36.8589  -17.2896   34.9709 C   0  0  0  0  0  0  0  0  0  0  0  0
   36.7735  -17.3868   36.3424 C   0  0  0  0  0  0  0  0  0  0  0  0
   37.3375  -18.5042   36.9058 C   0  0  0  0  0  0  0  0  0  0  0  0
   37.9695  -19.5079   36.1779 C   0  0  0  0  0  0  0  0  0  0  0  0
   38.6441  -20.3301   34.0373 O   0  0  0  0  0  0  0  0  0  0  0  0
   40.7866  -20.2338   32.9139 C   0  0  0  0  0  0  0  0  0  0  0  0
   39.9614  -20.7448   34.0941 C   0  0  0  0  0  0  0  0  0  0  0  0
   40.0157  -22.2723   34.0377 C   0  0  0  0  0  0  0  0  0  0  0  0
   33.3118  -16.2971   35.8377 N   0  0  0  0  0  0  0  0  0  0  0  0
   32.6667  -16.7377   36.5565 H   0  0  0  0  0  0  0  0  0  0  0  0
   33.3287  -16.8510   34.6002 N   0  0  0  0  0  0  0  0  0  0  0  0
   33.3365  -17.9817   34.1247 C   0  0  0  0  0  0  0  0  0  0  0  0
   33.3294  -19.2425   34.8266 C   0  0  0  0  0  0  0  0  0  0  0  0
   34.0184  -19.5091   35.9870 C   0  0  0  0  0  0  0  0  0  0  0  0
   33.9752  -20.7477   36.6238 C   0  0  0  0  0  0  0  0  0  0  0  0
   33.2280  -21.7838   36.1140 C   0  0  0  0  0  0  0  0  0  0  0  0
   32.5279  -21.5474   34.9543 C   0  0  0  0  0  0  0  0  0  0  0  0
   32.5781  -20.3261   34.3378 C   0  0  0  0  0  0  0  0  0  0  0  0
   33.1897  -23.0509   36.7741 N   0  0  0  0  0  0  0  0  0  0  0  0
   33.5404  -23.1238   37.9669 O   0  0  0  0  0  0  0  0  0  0  0  0
   32.7625  -24.1305   36.0445 O   0  0  0  0  0  0  0  0  0  0  0  0
 13 14  1  0  0  0
 14 15  1  0  0  0
 14 12  1  0  0  0
 12  6  1  0  0  0
  6  7  2  0  0  0
  7  8  1  0  0  0
  8  9  2  0  0  0
  9  5  1  0  0  0
  5  3  1  0  0  0
  3  1  1  0  0  0
  1  2  2  0  0  0
  1 16  1  0  0  0
 16 18  1  0  0  0
 18 19  2  0  0  0
 19 20  1  0  0  0
 20 21  2  0  0  0
 21 22  1  0  0  0
 22 23  2  0  0  0
 23 26  1  0  0  0
 26 27  2  0  0  0
 26 28  1  0  0  0
 23 24  1  0  0  0
 24 25  2  0  0  0
  9 10  1  0  0  0
 10 11  2  0  0  0
 11  6  1  0  0  0
 25 20  1  0  0  0
  3  4  1  0  0  0
 16 17  1  0  0  0
M  CHG 1  26   1
M  CHG 1  28  -1
M  END
> <minimizedAffinity>
-5.23075

> <CNNscore>
0.3188678920

> <CNNaffinity>
4.7499303818

> <CNN_VS>
1.5146002769

> <CNNaffinity_variance>
0.6361310482

$$$$
[H]c1nc(N([H])[H])c(C(=O)N([H])c2c([H])nc([H])c([H])c2N2C([H])([H])C([H])([H])C([H])(N([H])[H])C([H])([H])C2([H])[H])nc1-c1c([H])c([H])c(OC([H])([H])[H])c([H])c1[H]


 36 39  0  0  0  0  0  0  0  0999 V2000
   38.3823  -19.2624   37.1020 C   0  0  0  0  0  0  0  0  0  0  0  0
   38.3929  -20.1084   38.0173 O   0  0  0  0  0  0  0  0  0  0  0  0
   39.4820  -18.7265   36.4176 N   0  0  0  0  0  0  0  0  0  0  0  0
   39.2327  -18.0248   35.6516 H   0  0  0  0  0  0  0  0  0  0  0  0
   35.5182  -16.9754   36.4867 C   0  0  0  0  0  0  0  0  0  0  0  0
   34.5697  -17.8634   36.0570 C   0  0  0  0  0  0  0  0  0  0  0  0
   34.8367  -19.2018   35.9595 N   0  0  0  0  0  0  0  0  0  0  0  0
   36.0662  -19.6635   36.2945 C   0  0  0  0  0  0  0  0  0  0  0  0
   36.3804  -21.0564   36.2038 N   0  0  0  0  0  0  0  0  0  0  0  0
   37.0218  -18.7945   36.7238 C   0  0  0  0  0  0  0  0  0  0  0  0
   36.7240  -17.4681   36.8098 N   0  0  0  0  0  0  0  0  0  0  0  0
   36.3772  -21.6679   37.0449 H   0  0  0  0  0  0  0  0  0  0  0  0
   36.6126  -21.4544   35.2900 H   0  0  0  0  0  0  0  0  0  0  0  0
   34.8978  -12.7677   36.8566 C   0  0  0  0  0  0  0  0  0  0  0  0
   33.8322  -13.5942   36.5992 C   0  0  0  0  0  0  0  0  0  0  0  0
   34.0520  -14.9447   36.4832 C   0  0  0  0  0  0  0  0  0  0  0  0
   35.2750  -15.5523   36.6057 C   0  0  0  0  0  0  0  0  0  0  0  0
   36.3427  -14.6817   36.8684 C   0  0  0  0  0  0  0  0  0  0  0  0
   36.1623  -13.3186   36.9918 C   0  0  0  0  0  0  0  0  0  0  0  0
   33.5088  -10.9371   37.5876 C   0  0  0  0  0  0  0  0  0  0  0  0
   34.6809  -11.4108   36.9738 O   0  0  0  0  0  0  0  0  0  0  0  0
   40.8527  -19.0080   36.5916 C   0  0  0  0  0  0  0  0  0  0  0  0
   41.5914  -18.4931   37.6138 C   0  0  0  0  0  0  0  0  0  0  0  0
   42.8864  -18.8120   37.7856 N   0  0  0  0  0  0  0  0  0  0  0  0
   43.5192  -19.6537   36.9602 C   0  0  0  0  0  0  0  0  0  0  0  0
   42.8277  -20.2043   35.9113 C   0  0  0  0  0  0  0  0  0  0  0  0
   41.4846  -19.8847   35.7168 C   0  0  0  0  0  0  0  0  0  0  0  0
   40.7953  -20.4285   34.6086 N   0  0  0  0  0  0  0  0  0  0  0  0
   40.6501  -19.7821   33.3355 C   0  0  0  0  0  0  0  0  0  0  0  0
   41.0214  -20.7417   32.2287 C   0  0  0  0  0  0  0  0  0  0  0  0
   41.6979  -21.9534   32.7860 C   0  0  0  0  0  0  0  0  0  0  0  0
   41.9348  -22.9330   31.7166 N   0  0  0  0  0  0  0  0  0  0  0  0
   40.9063  -22.6857   33.8352 C   0  0  0  0  0  0  0  0  0  0  0  0
   40.1867  -21.7437   34.7550 C   0  0  0  0  0  0  0  0  0  0  0  0
   42.1722  -23.8423   32.1249 H   0  0  0  0  0  0  0  0  0  0  0  0
   42.6145  -22.5706   31.0187 H   0  0  0  0  0  0  0  0  0  0  0  0
 20 21  1  0  0  0
 21 14  1  0  0  0
 14 15  2  0  0  0
 15 16  1  0  0  0
 16 17  2  0  0  0
 17  5  1  0  0  0
  5  6  2  0  0  0
  6  7  1  0  0  0
  7  8  2  0  0  0
  8  9  1  0  0  0
  8 10  1  0  0  0
 10  1  1  0  0  0
  1  2  2  0  0  0
  1  3  1  0  0  0
  3 22  1  0  0  0
 22 23  2  0  0  0
 23 24  1  0  0  0
 24 25  2  0  0  0
 25 26  1  0  0  0
 26 27  2  0  0  0
 27 28  1  0  0  0
 28 29  1  0  0  0
 29 30  1  0  0  0
 30 31  1  0  0  0
 31 32  1  0  0  0
 31 33  1  0  0  0
 33 34  1  0  0  0
 10 11  2  0  0  0
 17 18  1  0  0  0
 18 19  2  0  0  0
 19 14  1  0  0  0
 11  5  1  0  0  0
 27 22  1  0  0  0
 34 28  1  0  0  0
  9 12  1  0  0  0
  9 13  1  0  0  0
  3  4  1  0  0  0
 32 35  1  0  0  0
 32 36  1  0  0  0
M  END
> <minimizedAffinity>
-6.82086

> <CNNscore>
0.2787257135

> <CNNaffinity>
5.6857981682

> <CNN_VS>
1.5847781897

> <CNNaffinity_variance>
0.0070194630

$$$$
[H]c1nc(N([H])[H])c(C(=O)N([H])c2c([H])nc([H])c([H])c2N2C([H])([H])C([H])([H])C([H])(N([H])[H])C([H])([H])C2([H])[H])nc1-c1c([H])c([H])c(OC([H])([H])[H])c([H])c1[H]


 36 39  0  0  0  0  0  0  0  0999 V2000
   35.5261  -20.5938   38.5214 C   0  0  0  0  0  0  0  0  0  0  0  0
   34.8731  -20.1144   39.4688 O   0  0  0  0  0  0  0  0  0  0  0  0
   35.2082  -20.5581   37.1567 N   0  0  0  0  0  0  0  0  0  0  0  0
   35.9291  -21.0201   36.5179 H   0  0  0  0  0  0  0  0  0  0  0  0
   39.1499  -21.2078   39.0725 C   0  0  0  0  0  0  0  0  0  0  0  0
   39.1139  -22.4466   39.6529 C   0  0  0  0  0  0  0  0  0  0  0  0
   37.9309  -23.0975   39.8740 N   0  0  0  0  0  0  0  0  0  0  0  0
   36.7660  -22.5065   39.5123 C   0  0  0  0  0  0  0  0  0  0  0  0
   35.5106  -23.1578   39.7294 N   0  0  0  0  0  0  0  0  0  0  0  0
   36.7829  -21.2746   38.9338 C   0  0  0  0  0  0  0  0  0  0  0  0
   37.9774  -20.6534   38.7273 N   0  0  0  0  0  0  0  0  0  0  0  0
   35.0176  -23.6532   38.9595 H   0  0  0  0  0  0  0  0  0  0  0  0
   35.0933  -23.1324   40.6634 H   0  0  0  0  0  0  0  0  0  0  0  0
   42.7910  -19.0749   38.4252 C   0  0  0  0  0  0  0  0  0  0  0  0
   42.0371  -19.4788   37.3513 C   0  0  0  0  0  0  0  0  0  0  0  0
   40.8693  -20.1641   37.5799 C   0  0  0  0  0  0  0  0  0  0  0  0
   40.3806  -20.4868   38.8196 C   0  0  0  0  0  0  0  0  0  0  0  0
   41.1729  -20.0606   39.8955 C   0  0  0  0  0  0  0  0  0  0  0  0
   42.3530  -19.3694   39.7067 C   0  0  0  0  0  0  0  0  0  0  0  0
   44.1780  -17.7470   36.9664 C   0  0  0  0  0  0  0  0  0  0  0  0
   43.9644  -18.3863   38.1996 O   0  0  0  0  0  0  0  0  0  0  0  0
   34.0879  -19.9787   36.5262 C   0  0  0  0  0  0  0  0  0  0  0  0
   32.8177  -20.4381   36.7028 C   0  0  0  0  0  0  0  0  0  0  0  0
   31.7595  -19.8409   36.1266 N   0  0  0  0  0  0  0  0  0  0  0  0
   31.8983  -18.7618   35.3481 C   0  0  0  0  0  0  0  0  0  0  0  0
   33.1536  -18.2528   35.1322 C   0  0  0  0  0  0  0  0  0  0  0  0
   34.2628  -18.8592   35.7205 C   0  0  0  0  0  0  0  0  0  0  0  0
   35.5544  -18.3476   35.4572 N   0  0  0  0  0  0  0  0  0  0  0  0
   36.4785  -17.8987   36.4592 C   0  0  0  0  0  0  0  0  0  0  0  0
   37.8338  -18.5243   36.2229 C   0  0  0  0  0  0  0  0  0  0  0  0
   37.7373  -19.6283   35.2187 C   0  0  0  0  0  0  0  0  0  0  0  0
   39.0786  -20.1384   34.9026 N   0  0  0  0  0  0  0  0  0  0  0  0
   37.1386  -19.2238   33.8990 C   0  0  0  0  0  0  0  0  0  0  0  0
   35.9937  -18.2693   34.0707 C   0  0  0  0  0  0  0  0  0  0  0  0
   39.0403  -20.7150   34.0565 H   0  0  0  0  0  0  0  0  0  0  0  0
   39.5116  -20.5952   35.7299 H   0  0  0  0  0  0  0  0  0  0  0  0
 20 21  1  0  0  0
 21 14  1  0  0  0
 14 15  2  0  0  0
 15 16  1  0  0  0
 16 17  2  0  0  0
 17  5  1  0  0  0
  5  6  2  0  0  0
  6  7  1  0  0  0
  7  8  2  0  0  0
  8  9  1  0  0  0
  8 10  1  0  0  0
 10  1  1  0  0  0
  1  2  2  0  0  0
  1  3  1  0  0  0
  3 22  1  0  0  0
 22 23  2  0  0  0
 23 24  1  0  0  0
 24 25  2  0  0  0
 25 26  1  0  0  0
 26 27  2  0  0  0
 27 28  1  0  0  0
 28 29  1  0  0  0
 29 30  1  0  0  0
 30 31  1  0  0  0
 31 32  1  0  0  0
 31 33  1  0  0  0
 33 34  1  0  0  0
 10 11  2  0  0  0
 17 18  1  0  0  0
 18 19  2  0  0  0
 19 14  1  0  0  0
 11  5  1  0  0  0
 27 22  1  0  0  0
 34 28  1  0  0  0
  9 12  1  0  0  0
  9 13  1  0  0  0
  3  4  1  0  0  0
 32 35  1  0  0  0
 32 36  1  0  0  0
M  END
> <minimizedAffinity>
-5.80878

> <CNNscore>
0.2698009610

> <CNNaffinity>
5.3382110596

> <CNN_VS>
1.4402544498

> <CNNaffinity_variance>
0.4499731660

$$$$
[H]c1nc(N([H])[H])c(C(=O)N([H])c2c([H])nc([H])c([H])c2N2C([H])([H])C([H])([H])C([H])(N([H])[H])C([H])([H])C2([H])[H])nc1-c1c([H])c([H])c(OC([H])([H])[H])c([H])c1[H]


 36 39  0  0  0  0  0  0  0  0999 V2000
   35.4239  -19.2861   36.8656 C   0  0  0  0  0  0  0  0  0  0  0  0
   35.5622  -18.3431   37.6688 O   0  0  0  0  0  0  0  0  0  0  0  0
   36.2854  -20.3734   36.6638 N   0  0  0  0  0  0  0  0  0  0  0  0
   35.9532  -21.0764   35.9312 H   0  0  0  0  0  0  0  0  0  0  0  0
   32.0113  -20.0487   35.6066 C   0  0  0  0  0  0  0  0  0  0  0  0
   31.9002  -19.1312   34.5974 C   0  0  0  0  0  0  0  0  0  0  0  0
   32.9150  -18.2596   34.3097 N   0  0  0  0  0  0  0  0  0  0  0  0
   34.0576  -18.3016   35.0376 C   0  0  0  0  0  0  0  0  0  0  0  0
   35.1385  -17.4047   34.7651 N   0  0  0  0  0  0  0  0  0  0  0  0
   34.1854  -19.2078   36.0452 C   0  0  0  0  0  0  0  0  0  0  0  0
   33.1567  -20.0615   36.3060 N   0  0  0  0  0  0  0  0  0  0  0  0
   35.9677  -17.7076   34.2155 H   0  0  0  0  0  0  0  0  0  0  0  0
   35.0900  -16.4464   35.1207 H   0  0  0  0  0  0  0  0  0  0  0  0
   28.9871  -22.8893   36.6123 C   0  0  0  0  0  0  0  0  0  0  0  0
   28.6294  -21.6331   36.1895 C   0  0  0  0  0  0  0  0  0  0  0  0
   29.6166  -20.7333   35.8710 C   0  0  0  0  0  0  0  0  0  0  0  0
   30.9617  -20.9893   35.9413 C   0  0  0  0  0  0  0  0  0  0  0  0
   31.2947  -22.2805   36.3762 C   0  0  0  0  0  0  0  0  0  0  0  0
   30.3315  -23.2130   36.7055 C   0  0  0  0  0  0  0  0  0  0  0  0
   26.9970  -24.1038   35.9963 C   0  0  0  0  0  0  0  0  0  0  0  0
   27.9984  -23.7957   36.9329 O   0  0  0  0  0  0  0  0  0  0  0  0
   37.5036  -20.6662   37.3107 C   0  0  0  0  0  0  0  0  0  0  0  0
   37.5837  -20.9799   38.6340 C   0  0  0  0  0  0  0  0  0  0  0  0
   38.7515  -21.2999   39.2189 N   0  0  0  0  0  0  0  0  0  0  0  0
   39.8987  -21.3275   38.5310 C   0  0  0  0  0  0  0  0  0  0  0  0
   39.8817  -21.0202   37.1943 C   0  0  0  0  0  0  0  0  0  0  0  0
   38.6805  -20.6851   36.5708 C   0  0  0  0  0  0  0  0  0  0  0  0
   38.6843  -20.3321   35.2017 N   0  0  0  0  0  0  0  0  0  0  0  0
   38.3065  -19.0475   34.6851 C   0  0  0  0  0  0  0  0  0  0  0  0
   39.3632  -18.5504   33.7260 C   0  0  0  0  0  0  0  0  0  0  0  0
   40.5997  -19.3857   33.8243 C   0  0  0  0  0  0  0  0  0  0  0  0
   41.5670  -18.9740   32.7975 N   0  0  0  0  0  0  0  0  0  0  0  0
   40.3802  -20.8577   33.6039 C   0  0  0  0  0  0  0  0  0  0  0  0
   39.1050  -21.3357   34.2337 C   0  0  0  0  0  0  0  0  0  0  0  0
   42.2990  -19.6850   32.7050 H   0  0  0  0  0  0  0  0  0  0  0  0
   41.9086  -18.0074   32.9690 H   0  0  0  0  0  0  0  0  0  0  0  0
 20 21  1  0  0  0
 21 14  1  0  0  0
 14 15  2  0  0  0
 15 16  1  0  0  0
 16 17  2  0  0  0
 17  5  1  0  0  0
  5  6  2  0  0  0
  6  7  1  0  0  0
  7  8  2  0  0  0
  8  9  1  0  0  0
  8 10  1  0  0  0
 10  1  1  0  0  0
  1  2  2  0  0  0
  1  3  1  0  0  0
  3 22  1  0  0  0
 22 23  2  0  0  0
 23 24  1  0  0  0
 24 25  2  0  0  0
 25 26  1  0  0  0
 26 27  2  0  0  0
 27 28  1  0  0  0
 28 29  1  0  0  0
 29 30  1  0  0  0
 30 31  1  0  0  0
 31 32  1  0  0  0
 31 33  1  0  0  0
 33 34  1  0  0  0
 10 11  2  0  0  0
 17 18  1  0  0  0
 18 19  2  0  0  0
 19 14  1  0  0  0
 11  5  1  0  0  0
 27 22  1  0  0  0
 34 28  1  0  0  0
  9 12  1  0  0  0
  9 13  1  0  0  0
  3  4  1  0  0  0
 32 35  1  0  0  0
 32 36  1  0  0  0
M  END
> <minimizedAffinity>
-5.86162

> <CNNscore>
0.2110810280

> <CNNaffinity>
5.3277726173

> <CNN_VS>
1.1245917082

> <CNNaffinity_variance>
0.5067068338

$$$$
[H]c1nc(N([H])[H])c(C(=O)N([H])c2c([H])nc([H])c([H])c2N2C([H])([H])C([H])([H])C([H])(N([H])[H])C([H])([H])C2([H])[H])nc1-c1c([H])c([H])c(OC([H])([H])[H])c([H])c1[H]


 36 39  0  0  0  0  0  0  0  0999 V2000
   37.1903  -20.0656   36.4183 C   0  0  0  0  0  0  0  0  0  0  0  0
   37.5471  -20.0082   37.6112 O   0  0  0  0  0  0  0  0  0  0  0  0
   37.7467  -20.8441   35.3939 N   0  0  0  0  0  0  0  0  0  0  0  0
   37.2629  -20.7472   34.4464 H   0  0  0  0  0  0  0  0  0  0  0  0
   33.6949  -18.9912   35.7552 C   0  0  0  0  0  0  0  0  0  0  0  0
   33.8818  -17.6614   35.4914 C   0  0  0  0  0  0  0  0  0  0  0  0
   35.1271  -17.0953   35.5233 N   0  0  0  0  0  0  0  0  0  0  0  0
   36.2025  -17.8641   35.8224 C   0  0  0  0  0  0  0  0  0  0  0  0
   37.5189  -17.3052   35.8656 N   0  0  0  0  0  0  0  0  0  0  0  0
   36.0351  -19.1886   36.0875 C   0  0  0  0  0  0  0  0  0  0  0  0
   34.7822  -19.7215   36.0474 N   0  0  0  0  0  0  0  0  0  0  0  0
   38.1807  -17.4169   35.0714 H   0  0  0  0  0  0  0  0  0  0  0  0
   37.8106  -16.7858   36.6977 H   0  0  0  0  0  0  0  0  0  0  0  0
   29.8282  -20.7960   35.6233 C   0  0  0  0  0  0  0  0  0  0  0  0
   30.8300  -21.3826   36.3562 C   0  0  0  0  0  0  0  0  0  0  0  0
   32.0670  -20.7873   36.3858 C   0  0  0  0  0  0  0  0  0  0  0  0
   32.3943  -19.6286   35.7298 C   0  0  0  0  0  0  0  0  0  0  0  0
   31.3501  -19.0540   34.9905 C   0  0  0  0  0  0  0  0  0  0  0  0
   30.0931  -19.6221   34.9359 C   0  0  0  0  0  0  0  0  0  0  0  0
   28.4506  -22.7564   35.8956 C   0  0  0  0  0  0  0  0  0  0  0  0
   28.5844  -21.3910   35.5913 O   0  0  0  0  0  0  0  0  0  0  0  0
   38.8313  -21.7428   35.4582 C   0  0  0  0  0  0  0  0  0  0  0  0
   38.6742  -23.0816   35.6550 C   0  0  0  0  0  0  0  0  0  0  0  0
   39.7209  -23.9257   35.6673 N   0  0  0  0  0  0  0  0  0  0  0  0
   40.9745  -23.4946   35.4864 C   0  0  0  0  0  0  0  0  0  0  0  0
   41.1963  -22.1563   35.2840 C   0  0  0  0  0  0  0  0  0  0  0  0
   40.1235  -21.2659   35.2689 C   0  0  0  0  0  0  0  0  0  0  0  0
   40.3708  -19.8842   35.0989 N   0  0  0  0  0  0  0  0  0  0  0  0
   40.7782  -18.9894   36.1444 C   0  0  0  0  0  0  0  0  0  0  0  0
   41.9693  -18.1783   35.6889 C   0  0  0  0  0  0  0  0  0  0  0  0
   42.5410  -18.7433   34.4279 C   0  0  0  0  0  0  0  0  0  0  0  0
   43.6129  -17.8716   33.9275 N   0  0  0  0  0  0  0  0  0  0  0  0
   41.5589  -18.8654   33.2946 C   0  0  0  0  0  0  0  0  0  0  0  0
   40.2081  -19.3149   33.7682 C   0  0  0  0  0  0  0  0  0  0  0  0
   43.8383  -18.1190   32.9592 H   0  0  0  0  0  0  0  0  0  0  0  0
   44.4218  -17.8580   34.5803 H   0  0  0  0  0  0  0  0  0  0  0  0
 20 21  1  0  0  0
 21 14  1  0  0  0
 14 15  2  0  0  0
 15 16  1  0  0  0
 16 17  2  0  0  0
 17  5  1  0  0  0
  5  6  2  0  0  0
  6  7  1  0  0  0
  7  8  2  0  0  0
  8  9  1  0  0  0
  8 10  1  0  0  0
 10  1  1  0  0  0
  1  2  2  0  0  0
  1  3  1  0  0  0
  3 22  1  0  0  0
 22 23  2  0  0  0
 23 24  1  0  0  0
 24 25  2  0  0  0
 25 26  1  0  0  0
 26 27  2  0  0  0
 27 28  1  0  0  0
 28 29  1  0  0  0
 29 30  1  0  0  0
 30 31  1  0  0  0
 31 32  1  0  0  0
 31 33  1  0  0  0
 33 34  1  0  0  0
 10 11  2  0  0  0
 17 18  1  0  0  0
 18 19  2  0  0  0
 19 14  1  0  0  0
 11  5  1  0  0  0
 27 22  1  0  0  0
 34 28  1  0  0  0
  9 12  1  0  0  0
  9 13  1  0  0  0
  3  4  1  0  0  0
 32 35  1  0  0  0
 32 36  1  0  0  0
M  END
> <minimizedAffinity>
-6.73082

> <CNNscore>
0.1807797849

> <CNNaffinity>
5.2390527725

> <CNN_VS>
0.9471148252

> <CNNaffinity_variance>
0.5578349829

$$$$
[H]c1nc(N([H])[H])c(C(=O)N([H])c2c([H])nc([H])c([H])c2N2C([H])([H])C([H])([H])C([H])(N([H])[H])C([H])([H])C2([H])[H])nc1-c1c([H])c([H])c(OC([H])([H])[H])c([H])c1[H]


 36 39  0  0  0  0  0  0  0  0999 V2000
   36.9097  -19.0892   36.9312 C   0  0  0  0  0  0  0  0  0  0  0  0
   37.2264  -17.9961   37.4396 O   0  0  0  0  0  0  0  0  0  0  0  0
   37.3824  -20.3633   37.2750 N   0  0  0  0  0  0  0  0  0  0  0  0
   36.9538  -21.1651   36.7140 H   0  0  0  0  0  0  0  0  0  0  0  0
   33.6874  -19.3639   35.0998 C   0  0  0  0  0  0  0  0  0  0  0  0
   34.0337  -18.8240   33.8908 C   0  0  0  0  0  0  0  0  0  0  0  0
   35.3005  -18.3668   33.6495 N   0  0  0  0  0  0  0  0  0  0  0  0
   36.2369  -18.4477   34.6262 C   0  0  0  0  0  0  0  0  0  0  0  0
   37.5709  -17.9784   34.4089 N   0  0  0  0  0  0  0  0  0  0  0  0
   35.9100  -18.9816   35.8347 C   0  0  0  0  0  0  0  0  0  0  0  0
   34.6401  -19.4280   36.0429 N   0  0  0  0  0  0  0  0  0  0  0  0
   38.3458  -18.6347   34.1851 H   0  0  0  0  0  0  0  0  0  0  0  0
   37.7614  -16.9752   34.4766 H   0  0  0  0  0  0  0  0  0  0  0  0
   29.7339  -20.7565   35.9101 C   0  0  0  0  0  0  0  0  0  0  0  0
   30.8091  -21.3761   36.4974 C   0  0  0  0  0  0  0  0  0  0  0  0
   32.0729  -20.9140   36.2240 C   0  0  0  0  0  0  0  0  0  0  0  0
   32.3589  -19.8607   35.3942 C   0  0  0  0  0  0  0  0  0  0  0  0
   31.2402  -19.2490   34.8100 C   0  0  0  0  0  0  0  0  0  0  0  0
   29.9541  -19.6843   35.0599 C   0  0  0  0  0  0  0  0  0  0  0  0
   27.9604  -21.1596   37.4934 C   0  0  0  0  0  0  0  0  0  0  0  0
   28.4631  -21.2178   36.1824 O   0  0  0  0  0  0  0  0  0  0  0  0
   38.3189  -20.7192   38.2672 C   0  0  0  0  0  0  0  0  0  0  0  0
   37.9576  -21.2029   39.4884 C   0  0  0  0  0  0  0  0  0  0  0  0
   38.8699  -21.5784   40.4022 N   0  0  0  0  0  0  0  0  0  0  0  0
   40.1832  -21.4969   40.1600 C   0  0  0  0  0  0  0  0  0  0  0  0
   40.6087  -21.0168   38.9477 C   0  0  0  0  0  0  0  0  0  0  0  0
   39.6775  -20.6218   37.9881 C   0  0  0  0  0  0  0  0  0  0  0  0
   40.1307  -20.0917   36.7582 N   0  0  0  0  0  0  0  0  0  0  0  0
   40.5665  -18.7388   36.5593 C   0  0  0  0  0  0  0  0  0  0  0  0
   41.8952  -18.7295   35.8393 C   0  0  0  0  0  0  0  0  0  0  0  0
   42.4905  -20.1011   35.8130 C   0  0  0  0  0  0  0  0  0  0  0  0
   43.7142  -20.1022   34.9995 N   0  0  0  0  0  0  0  0  0  0  0  0
   41.6045  -21.1568   35.2094 C   0  0  0  0  0  0  0  0  0  0  0  0
   40.1674  -20.9746   35.6004 C   0  0  0  0  0  0  0  0  0  0  0  0
   43.9868  -21.0659   34.7834 H   0  0  0  0  0  0  0  0  0  0  0  0
   44.4563  -19.5200   35.4363 H   0  0  0  0  0  0  0  0  0  0  0  0
 20 21  1  0  0  0
 21 14  1  0  0  0
 14 15  2  0  0  0
 15 16  1  0  0  0
 16 17  2  0  0  0
 17  5  1  0  0  0
  5  6  2  0  0  0
  6  7  1  0  0  0
  7  8  2  0  0  0
  8  9  1  0  0  0
  8 10  1  0  0  0
 10  1  1  0  0  0
  1  2  2  0  0  0
  1  3  1  0  0  0
  3 22  1  0  0  0
 22 23  2  0  0  0
 23 24  1  0  0  0
 24 25  2  0  0  0
 25 26  1  0  0  0
 26 27  2  0  0  0
 27 28  1  0  0  0
 28 29  1  0  0  0
 29 30  1  0  0  0
 30 31  1  0  0  0
 31 32  1  0  0  0
 31 33  1  0  0  0
 33 34  1  0  0  0
 10 11  2  0  0  0
 17 18  1  0  0  0
 18 19  2  0  0  0
 19 14  1  0  0  0
 11  5  1  0  0  0
 27 22  1  0  0  0
 34 28  1  0  0  0
  9 12  1  0  0  0
  9 13  1  0  0  0
  3  4  1  0  0  0
 32 35  1  0  0  0
 32 36  1  0  0  0
M  END
> <minimizedAffinity>
-5.92121

> <CNNscore>
0.1700605452

> <CNNaffinity>
5.1728310585

> <CNN_VS>
0.8796944618

> <CNNaffinity_variance>
0.6153099537

$$$$
[H]c1nc(N([H])[H])c(C(=O)N([H])c2c([H])nc([H])c([H])c2N2C([H])([H])C([H])([H])C([H])(N([H])[H])C([H])([H])C2([H])[H])nc1-c1c([H])c([H])c(OC([H])([H])[H])c([H])c1[H]


 36 39  0  0  0  0  0  0  0  0999 V2000
   37.0115  -19.2383   36.8832 C   0  0  0  0  0  0  0  0  0  0  0  0
   37.4311  -18.1556   37.3364 O   0  0  0  0  0  0  0  0  0  0  0  0
   37.3817  -20.5323   37.2748 N   0  0  0  0  0  0  0  0  0  0  0  0
   36.8744  -21.3177   36.7580 H   0  0  0  0  0  0  0  0  0  0  0  0
   33.7588  -19.4062   35.0932 C   0  0  0  0  0  0  0  0  0  0  0  0
   34.1037  -18.8640   33.8848 C   0  0  0  0  0  0  0  0  0  0  0  0
   35.3793  -18.4393   33.6308 N   0  0  0  0  0  0  0  0  0  0  0  0
   36.3260  -18.5555   34.5938 C   0  0  0  0  0  0  0  0  0  0  0  0
   37.6695  -18.1209   34.3630 N   0  0  0  0  0  0  0  0  0  0  0  0
   36.0007  -19.0924   35.8015 C   0  0  0  0  0  0  0  0  0  0  0  0
   34.7218  -19.5058   36.0226 N   0  0  0  0  0  0  0  0  0  0  0  0
   38.4230  -18.7959   34.1223 H   0  0  0  0  0  0  0  0  0  0  0  0
   37.8884  -17.1240   34.4377 H   0  0  0  0  0  0  0  0  0  0  0  0
   29.7796  -20.6987   35.9428 C   0  0  0  0  0  0  0  0  0  0  0  0
   30.8445  -21.3446   36.5204 C   0  0  0  0  0  0  0  0  0  0  0  0
   32.1168  -20.9145   36.2344 C   0  0  0  0  0  0  0  0  0  0  0  0
   32.4212  -19.8693   35.4008 C   0  0  0  0  0  0  0  0  0  0  0  0
   31.3125  -19.2303   34.8268 C   0  0  0  0  0  0  0  0  0  0  0  0
   30.0184  -19.6330   35.0894 C   0  0  0  0  0  0  0  0  0  0  0  0
   28.0111  -21.0539   37.5430 C   0  0  0  0  0  0  0  0  0  0  0  0
   28.5003  -21.1278   36.2278 O   0  0  0  0  0  0  0  0  0  0  0  0
   38.3063  -20.9244   38.2646 C   0  0  0  0  0  0  0  0  0  0  0  0
   39.5865  -20.4608   38.3086 C   0  0  0  0  0  0  0  0  0  0  0  0
   40.4368  -20.8140   39.2887 N   0  0  0  0  0  0  0  0  0  0  0  0
   40.0699  -21.6409   40.2744 C   0  0  0  0  0  0  0  0  0  0  0  0
   38.7928  -22.1413   40.2838 C   0  0  0  0  0  0  0  0  0  0  0  0
   37.8974  -21.7870   39.2754 C   0  0  0  0  0  0  0  0  0  0  0  0
   36.5969  -22.3416   39.2759 N   0  0  0  0  0  0  0  0  0  0  0  0
   35.3807  -21.5803   39.2413 C   0  0  0  0  0  0  0  0  0  0  0  0
   34.4654  -22.1260   38.1698 C   0  0  0  0  0  0  0  0  0  0  0  0
   35.1998  -23.0828   37.2858 C   0  0  0  0  0  0  0  0  0  0  0  0
   34.2684  -23.7027   36.3331 N   0  0  0  0  0  0  0  0  0  0  0  0
   35.8561  -24.2268   38.0099 C   0  0  0  0  0  0  0  0  0  0  0  0
   36.4675  -23.7920   39.3092 C   0  0  0  0  0  0  0  0  0  0  0  0
   34.7094  -24.5181   35.8967 H   0  0  0  0  0  0  0  0  0  0  0  0
   33.8854  -22.9994   35.6703 H   0  0  0  0  0  0  0  0  0  0  0  0
 20 21  1  0  0  0
 21 14  1  0  0  0
 14 15  2  0  0  0
 15 16  1  0  0  0
 16 17  2  0  0  0
 17  5  1  0  0  0
  5  6  2  0  0  0
  6  7  1  0  0  0
  7  8  2  0  0  0
  8  9  1  0  0  0
  8 10  1  0  0  0
 10  1  1  0  0  0
  1  2  2  0  0  0
  1  3  1  0  0  0
  3 22  1  0  0  0
 22 23  2  0  0  0
 23 24  1  0  0  0
 24 25  2  0  0  0
 25 26  1  0  0  0
 26 27  2  0  0  0
 27 28  1  0  0  0
 28 29  1  0  0  0
 29 30  1  0  0  0
 30 31  1  0  0  0
 31 32  1  0  0  0
 31 33  1  0  0  0
 33 34  1  0  0  0
 10 11  2  0  0  0
 17 18  1  0  0  0
 18 19  2  0  0  0
 19 14  1  0  0  0
 11  5  1  0  0  0
 27 22  1  0  0  0
 34 28  1  0  0  0
  9 12  1  0  0  0
  9 13  1  0  0  0
  3  4  1  0  0  0
 32 35  1  0  0  0
 32 36  1  0  0  0
M  END
> <minimizedAffinity>
-5.35237

> <CNNscore>
0.1695606858

> <CNNaffinity>
5.0096588135

> <CNN_VS>
0.8494411707

> <CNNaffinity_variance>
0.3841922283

$$$$
[H]c1nc(N([H])[H])c(C(=O)N([H])c2c([H])nc([H])c([H])c2N2C([H])([H])C([H])([H])C([H])(N([H])[H])C([H])([H])C2([H])[H])nc1-c1c([H])c([H])c(OC([H])([H])[H])c([H])c1[H]


 36 39  0  0  0  0  0  0  0  0999 V2000
   33.1841  -19.0107   35.1467 C   0  0  0  0  0  0  0  0  0  0  0  0
   32.6490  -18.7576   34.0498 O   0  0  0  0  0  0  0  0  0  0  0  0
   32.7267  -19.8855   36.1419 N   0  0  0  0  0  0  0  0  0  0  0  0
   33.3622  -19.9605   36.9973 H   0  0  0  0  0  0  0  0  0  0  0  0
   36.8179  -18.3617   35.5792 C   0  0  0  0  0  0  0  0  0  0  0  0
   36.8106  -17.0134   35.8137 C   0  0  0  0  0  0  0  0  0  0  0  0
   35.6441  -16.2987   35.8356 N   0  0  0  0  0  0  0  0  0  0  0  0
   34.4670  -16.9353   35.6205 C   0  0  0  0  0  0  0  0  0  0  0  0
   33.2283  -16.2192   35.6353 N   0  0  0  0  0  0  0  0  0  0  0  0
   34.4554  -18.2759   35.3856 C   0  0  0  0  0  0  0  0  0  0  0  0
   35.6341  -18.9585   35.3706 N   0  0  0  0  0  0  0  0  0  0  0  0
   32.6065  -16.2306   36.4686 H   0  0  0  0  0  0  0  0  0  0  0  0
   32.9531  -15.6865   34.8060 H   0  0  0  0  0  0  0  0  0  0  0  0
   40.4224  -20.6494   35.5737 C   0  0  0  0  0  0  0  0  0  0  0  0
   39.4907  -20.8423   34.5840 C   0  0  0  0  0  0  0  0  0  0  0  0
   38.3374  -20.0972   34.6032 C   0  0  0  0  0  0  0  0  0  0  0  0
   38.0301  -19.1542   35.5499 C   0  0  0  0  0  0  0  0  0  0  0  0
   39.0013  -18.9805   36.5467 C   0  0  0  0  0  0  0  0  0  0  0  0
   40.1732  -19.7102   36.5620 C   0  0  0  0  0  0  0  0  0  0  0  0
   42.1512  -21.7834   34.3327 C   0  0  0  0  0  0  0  0  0  0  0  0
   41.5820  -21.3958   35.5576 O   0  0  0  0  0  0  0  0  0  0  0  0
   31.5652  -20.6850   36.1484 C   0  0  0  0  0  0  0  0  0  0  0  0
   30.3920  -20.2930   35.5777 C   0  0  0  0  0  0  0  0  0  0  0  0
   29.3103  -21.0916   35.5567 N   0  0  0  0  0  0  0  0  0  0  0  0
   29.3290  -22.3159   36.0960 C   0  0  0  0  0  0  0  0  0  0  0  0
   30.4822  -22.7665   36.6862 C   0  0  0  0  0  0  0  0  0  0  0  0
   31.6136  -21.9522   36.7184 C   0  0  0  0  0  0  0  0  0  0  0  0
   32.7829  -22.4143   37.3651 N   0  0  0  0  0  0  0  0  0  0  0  0
   33.8959  -23.0331   36.7031 C   0  0  0  0  0  0  0  0  0  0  0  0
   35.1840  -22.3802   37.1485 C   0  0  0  0  0  0  0  0  0  0  0  0
   34.9033  -21.1185   37.9007 C   0  0  0  0  0  0  0  0  0  0  0  0
   36.1540  -20.5655   38.4384 N   0  0  0  0  0  0  0  0  0  0  0  0
   33.9938  -21.2861   39.0874 C   0  0  0  0  0  0  0  0  0  0  0  0
   32.8801  -22.2524   38.8093 C   0  0  0  0  0  0  0  0  0  0  0  0
   35.9436  -19.8507   39.1418 H   0  0  0  0  0  0  0  0  0  0  0  0
   36.7892  -20.2604   37.6742 H   0  0  0  0  0  0  0  0  0  0  0  0
 20 21  1  0  0  0
 21 14  1  0  0  0
 14 15  2  0  0  0
 15 16  1  0  0  0
 16 17  2  0  0  0
 17  5  1  0  0  0
  5  6  2  0  0  0
  6  7  1  0  0  0
  7  8  2  0  0  0
  8  9  1  0  0  0
  8 10  1  0  0  0
 10  1  1  0  0  0
  1  2  2  0  0  0
  1  3  1  0  0  0
  3 22  1  0  0  0
 22 23  2  0  0  0
 23 24  1  0  0  0
 24 25  2  0  0  0
 25 26  1  0  0  0
 26 27  2  0  0  0
 27 28  1  0  0  0
 28 29  1  0  0  0
 29 30  1  0  0  0
 30 31  1  0  0  0
 31 32  1  0  0  0
 31 33  1  0  0  0
 33 34  1  0  0  0
 10 11  2  0  0  0
 17 18  1  0  0  0
 18 19  2  0  0  0
 19 14  1  0  0  0
 11  5  1  0  0  0
 27 22  1  0  0  0
 34 28  1  0  0  0
  9 12  1  0  0  0
  9 13  1  0  0  0
  3  4  1  0  0  0
 32 35  1  0  0  0
 32 36  1  0  0  0
M  END
> <minimizedAffinity>
-5.77245

> <CNNscore>
0.1681056768

> <CNNaffinity>
5.0161185265

> <CNN_VS>
0.8432379961

> <CNNaffinity_variance>
0.2986470461

$$$$
[H]c1nc(N([H])[H])c(C(=O)N([H])c2c([H])nc([H])c([H])c2N2C([H])([H])C([H])([H])C([H])(N([H])[H])C([H])([H])C2([H])[H])nc1-c1c([H])c([H])c(OC([H])([H])[H])c([H])c1[H]


 36 39  0  0  0  0  0  0  0  0999 V2000
   36.4915  -19.7689   37.7468 C   0  0  0  0  0  0  0  0  0  0  0  0
   36.0043  -20.1872   38.8152 O   0  0  0  0  0  0  0  0  0  0  0  0
   37.7972  -19.9517   37.2708 N   0  0  0  0  0  0  0  0  0  0  0  0
   37.9885  -19.5176   36.3136 H   0  0  0  0  0  0  0  0  0  0  0  0
   34.7226  -16.8621   36.2523 C   0  0  0  0  0  0  0  0  0  0  0  0
   33.8399  -17.4989   35.4227 C   0  0  0  0  0  0  0  0  0  0  0  0
   33.8017  -18.8637   35.3330 N   0  0  0  0  0  0  0  0  0  0  0  0
   34.6552  -19.6060   36.0798 C   0  0  0  0  0  0  0  0  0  0  0  0
   34.6436  -21.0350   36.0103 N   0  0  0  0  0  0  0  0  0  0  0  0
   35.5399  -18.9893   36.9102 C   0  0  0  0  0  0  0  0  0  0  0  0
   35.5524  -17.6289   36.9766 N   0  0  0  0  0  0  0  0  0  0  0  0
   34.1669  -21.6083   36.7352 H   0  0  0  0  0  0  0  0  0  0  0  0
   35.1158  -21.4978   35.2292 H   0  0  0  0  0  0  0  0  0  0  0  0
   34.8332  -12.6088   36.6040 C   0  0  0  0  0  0  0  0  0  0  0  0
   35.9933  -13.3334   36.7229 C   0  0  0  0  0  0  0  0  0  0  0  0
   35.9372  -14.7005   36.6072 C   0  0  0  0  0  0  0  0  0  0  0  0
   34.7933  -15.4206   36.3774 C   0  0  0  0  0  0  0  0  0  0  0  0
   33.6258  -14.6523   36.2607 C   0  0  0  0  0  0  0  0  0  0  0  0
   33.6411  -13.2762   36.3710 C   0  0  0  0  0  0  0  0  0  0  0  0
   33.8936  -10.5529   37.4437 C   0  0  0  0  0  0  0  0  0  0  0  0
   34.8857  -11.2355   36.7195 O   0  0  0  0  0  0  0  0  0  0  0  0
   38.8673  -20.6447   37.8731 C   0  0  0  0  0  0  0  0  0  0  0  0
   38.9306  -20.8928   39.2111 C   0  0  0  0  0  0  0  0  0  0  0  0
   39.9390  -21.5953   39.7566 N   0  0  0  0  0  0  0  0  0  0  0  0
   40.9356  -22.0892   39.0128 C   0  0  0  0  0  0  0  0  0  0  0  0
   40.9273  -21.8715   37.6586 C   0  0  0  0  0  0  0  0  0  0  0  0
   39.8905  -21.1444   37.0752 C   0  0  0  0  0  0  0  0  0  0  0  0
   39.9158  -20.8940   35.6840 N   0  0  0  0  0  0  0  0  0  0  0  0
   40.5640  -19.7735   35.0642 C   0  0  0  0  0  0  0  0  0  0  0  0
   41.4297  -20.2508   33.9212 C   0  0  0  0  0  0  0  0  0  0  0  0
   41.5843  -21.7377   33.9617 C   0  0  0  0  0  0  0  0  0  0  0  0
   42.3170  -22.1991   32.7745 N   0  0  0  0  0  0  0  0  0  0  0  0
   40.2884  -22.5022   33.9577 C   0  0  0  0  0  0  0  0  0  0  0  0
   39.2418  -21.8377   34.8028 C   0  0  0  0  0  0  0  0  0  0  0  0
   42.2169  -23.2142   32.6773 H   0  0  0  0  0  0  0  0  0  0  0  0
   43.2960  -21.8496   32.7778 H   0  0  0  0  0  0  0  0  0  0  0  0
 20 21  1  0  0  0
 21 14  1  0  0  0
 14 15  2  0  0  0
 15 16  1  0  0  0
 16 17  2  0  0  0
 17  5  1  0  0  0
  5  6  2  0  0  0
  6  7  1  0  0  0
  7  8  2  0  0  0
  8  9  1  0  0  0
  8 10  1  0  0  0
 10  1  1  0  0  0
  1  2  2  0  0  0
  1  3  1  0  0  0
  3 22  1  0  0  0
 22 23  2  0  0  0
 23 24  1  0  0  0
 24 25  2  0  0  0
 25 26  1  0  0  0
 26 27  2  0  0  0
 27 28  1  0  0  0
 28 29  1  0  0  0
 29 30  1  0  0  0
 30 31  1  0  0  0
 31 32  1  0  0  0
 31 33  1  0  0  0
 33 34  1  0  0  0
 10 11  2  0  0  0
 17 18  1  0  0  0
 18 19  2  0  0  0
 19 14  1  0  0  0
 11  5  1  0  0  0
 27 22  1  0  0  0
 34 28  1  0  0  0
  9 12  1  0  0  0
  9 13  1  0  0  0
  3  4  1  0  0  0
 32 35  1  0  0  0
 32 36  1  0  0  0
M  END
> <minimizedAffinity>
-6.58628

> <CNNscore>
0.1642565280

> <CNNaffinity>
5.5691046715

> <CNN_VS>
0.9147617817

> <CNNaffinity_variance>
0.1351309717

$$$$
[H]c1nc(N([H])[H])c(C(=O)N([H])c2c([H])nc([H])c([H])c2N2C([H])([H])C([H])([H])C([H])(N([H])[H])C([H])([H])C2([H])[H])nc1-c1c([H])c([H])c(OC([H])([H])[H])c([H])c1[H]


 36 39  0  0  0  0  0  0  0  0999 V2000
   39.3383  -19.9827   36.9070 C   0  0  0  0  0  0  0  0  0  0  0  0
   39.0295  -21.1040   37.3552 O   0  0  0  0  0  0  0  0  0  0  0  0
   40.5400  -19.2859   37.0949 N   0  0  0  0  0  0  0  0  0  0  0  0
   40.5916  -18.3421   36.5970 H   0  0  0  0  0  0  0  0  0  0  0  0
   36.7122  -17.5802   35.8374 C   0  0  0  0  0  0  0  0  0  0  0  0
   36.3368  -18.1278   34.6407 C   0  0  0  0  0  0  0  0  0  0  0  0
   36.9198  -19.2702   34.1641 N   0  0  0  0  0  0  0  0  0  0  0  0
   37.8912  -19.8766   34.8891 C   0  0  0  0  0  0  0  0  0  0  0  0
   38.5230  -21.0719   34.4207 N   0  0  0  0  0  0  0  0  0  0  0  0
   38.2771  -19.3458   36.0815 C   0  0  0  0  0  0  0  0  0  0  0  0
   37.6768  -18.2076   36.5280 N   0  0  0  0  0  0  0  0  0  0  0  0
   38.2465  -22.0072   34.7811 H   0  0  0  0  0  0  0  0  0  0  0  0
   39.2619  -20.9994   33.7164 H   0  0  0  0  0  0  0  0  0  0  0  0
   34.8831  -14.0414   37.3730 C   0  0  0  0  0  0  0  0  0  0  0  0
   36.1455  -14.3904   37.7847 C   0  0  0  0  0  0  0  0  0  0  0  0
   36.7167  -15.5325   37.2798 C   0  0  0  0  0  0  0  0  0  0  0  0
   36.1188  -16.3741   36.3776 C   0  0  0  0  0  0  0  0  0  0  0  0
   34.8307  -15.9905   35.9767 C   0  0  0  0  0  0  0  0  0  0  0  0
   34.2226  -14.8498   36.4615 C   0  0  0  0  0  0  0  0  0  0  0  0
   32.9668  -12.9107   38.3026 C   0  0  0  0  0  0  0  0  0  0  0  0
   34.3063  -12.8949   37.8778 O   0  0  0  0  0  0  0  0  0  0  0  0
   41.6811  -19.6754   37.8258 C   0  0  0  0  0  0  0  0  0  0  0  0
   41.6816  -19.8149   39.1809 C   0  0  0  0  0  0  0  0  0  0  0  0
   42.7699  -20.2315   39.8520 N   0  0  0  0  0  0  0  0  0  0  0  0
   43.9121  -20.5318   39.2232 C   0  0  0  0  0  0  0  0  0  0  0  0
   43.9732  -20.4103   37.8583 C   0  0  0  0  0  0  0  0  0  0  0  0
   42.8551  -19.9789   37.1456 C   0  0  0  0  0  0  0  0  0  0  0  0
   42.9447  -19.8203   35.7435 N   0  0  0  0  0  0  0  0  0  0  0  0
   42.4278  -20.7485   34.7786 C   0  0  0  0  0  0  0  0  0  0  0  0
   41.6088  -20.0100   33.7453 C   0  0  0  0  0  0  0  0  0  0  0  0
   41.3392  -18.6077   34.1898 C   0  0  0  0  0  0  0  0  0  0  0  0
   40.6568  -17.8646   33.1215 N   0  0  0  0  0  0  0  0  0  0  0  0
   42.5703  -17.8063   34.5151 C   0  0  0  0  0  0  0  0  0  0  0  0
   43.6039  -18.6288   35.2268 C   0  0  0  0  0  0  0  0  0  0  0  0
   40.6859  -16.8605   33.3236 H   0  0  0  0  0  0  0  0  0  0  0  0
   39.7093  -18.2519   32.9403 H   0  0  0  0  0  0  0  0  0  0  0  0
 20 21  1  0  0  0
 21 14  1  0  0  0
 14 15  2  0  0  0
 15 16  1  0  0  0
 16 17  2  0  0  0
 17  5  1  0  0  0
  5  6  2  0  0  0
  6  7  1  0  0  0
  7  8  2  0  0  0
  8  9  1  0  0  0
  8 10  1  0  0  0
 10  1  1  0  0  0
  1  2  2  0  0  0
  1  3  1  0  0  0
  3 22  1  0  0  0
 22 23  2  0  0  0
 23 24  1  0  0  0
 24 25  2  0  0  0
 25 26  1  0  0  0
 26 27  2  0  0  0
 27 28  1  0  0  0
 28 29  1  0  0  0
 29 30  1  0  0  0
 30 31  1  0  0  0
 31 32  1  0  0  0
 31 33  1  0  0  0
 33 34  1  0  0  0
 10 11  2  0  0  0
 17 18  1  0  0  0
 18 19  2  0  0  0
 19 14  1  0  0  0
 11  5  1  0  0  0
 27 22  1  0  0  0
 34 28  1  0  0  0
  9 12  1  0  0  0
  9 13  1  0  0  0
  3  4  1  0  0  0
 32 35  1  0  0  0
 32 36  1  0  0  0
M  END
> <minimizedAffinity>
-7.97253

> <CNNscore>
0.1603257805

> <CNNaffinity>
5.5663061142

> <CNN_VS>
0.8924223781

> <CNNaffinity_variance>
0.2780869603

$$$$
[H]c1c([H])c(N([H])C(=O)N([H])[C@]([H])(C(=O)N([H])[C@]([H])(C(=O)N([H])[H])C([H])([H])C([H])([H])C([H])([H])[H])C([H])([H])C([H])(C([H])([H])[H])C([H])([H])[H])c([H])c([H])c1Br


 31 31  0  0  0  0  0  0  0  0999 V2000
   31.4398  -11.3876   37.7215 C   0  0  0  0  0  0  0  0  0  0  0  0
   31.8866  -12.3483   36.7198 N   0  0  0  0  0  0  0  0  0  0  0  0
   32.9257  -13.2534   37.0381 C   0  0  0  0  0  0  0  0  0  0  0  0
   33.4682  -13.2302   38.1910 O   0  0  0  0  0  0  0  0  0  0  0  0
   33.3715  -14.1838   36.0961 N   0  0  0  0  0  0  0  0  0  0  0  0
   31.4471  -12.3573   35.8042 H   0  0  0  0  0  0  0  0  0  0  0  0
   32.8683  -14.1328   35.1499 H   0  0  0  0  0  0  0  0  0  0  0  0
   34.3778  -15.1653   36.2361 C   0  0  0  0  0  0  0  0  0  0  0  0
   35.6076  -14.9801   36.8056 C   0  0  0  0  0  0  0  0  0  0  0  0
   36.5592  -16.0134   36.8836 C   0  0  0  0  0  0  0  0  0  0  0  0
   36.2944  -17.2648   36.3883 C   0  0  0  0  0  0  0  0  0  0  0  0
   37.5890  -18.6681   36.4949 Br  0  0  0  0  0  0  0  0  0  0  0  0
   35.0652  -17.4656   35.8148 C   0  0  0  0  0  0  0  0  0  0  0  0
   34.1357  -16.4572   35.7380 C   0  0  0  0  0  0  0  0  0  0  0  0
   30.5193  -12.6613   39.6752 N   0  0  0  0  0  0  0  0  0  0  0  0
   30.3094  -12.0014   38.4182 C   0  0  0  0  0  0  0  0  0  0  0  0
   29.1386  -11.9641   37.9132 O   0  0  0  0  0  0  0  0  0  0  0  0
   31.4832  -12.6630   40.0613 H   0  0  0  0  0  0  0  0  0  0  0  0
   29.4285  -13.3002   40.3769 C   0  0  0  0  0  0  0  0  0  0  0  0
   29.5709  -13.0588   41.8331 C   0  0  0  0  0  0  0  0  0  0  0  0
   28.5873  -12.2548   42.5047 N   0  0  0  0  0  0  0  0  0  0  0  0
   30.4941  -13.5087   42.5261 O   0  0  0  0  0  0  0  0  0  0  0  0
   28.0881  -11.5458   41.9424 H   0  0  0  0  0  0  0  0  0  0  0  0
   28.3747  -12.3721   43.5230 H   0  0  0  0  0  0  0  0  0  0  0  0
   29.4364  -14.7785   40.1284 C   0  0  0  0  0  0  0  0  0  0  0  0
   28.5963  -16.8081   41.4017 C   0  0  0  0  0  0  0  0  0  0  0  0
   28.3095  -15.5827   40.6214 C   0  0  0  0  0  0  0  0  0  0  0  0
   31.2786  -10.0406   37.1505 C   0  0  0  0  0  0  0  0  0  0  0  0
   32.2809   -8.9968   37.3699 C   0  0  0  0  0  0  0  0  0  0  0  0
   32.3036   -8.0781   36.1092 C   0  0  0  0  0  0  0  0  0  0  0  0
   33.7088   -9.4525   37.4830 C   0  0  0  0  0  0  0  0  0  0  0  0
 26 27  1  0  0  0
 27 25  1  0  0  0
 25 19  1  0  0  0
 19 15  1  0  0  0
 15 16  1  0  0  0
 16 17  2  0  0  0
 16  1  1  0  0  0
  1 28  1  0  0  0
 28 29  1  0  0  0
 29 30  1  0  0  0
 29 31  1  0  0  0
  1  2  1  0  0  0
  2  3  1  0  0  0
  3  4  2  0  0  0
  3  5  1  0  0  0
  5  8  1  0  0  0
  8  9  2  0  0  0
  9 10  1  0  0  0
 10 11  2  0  0  0
 11 12  1  0  0  0
 11 13  1  0  0  0
 13 14  2  0  0  0
 19 20  1  0  0  0
 20 21  1  0  0  0
 20 22  2  0  0  0
 14  8  1  0  0  0
 15 18  1  0  0  0
  2  6  1  0  0  0
  5  7  1  0  0  0
 21 23  1  0  0  0
 21 24  1  0  0  0
M  END
> <minimizedAffinity>
-7.95864

> <CNNscore>
0.7208012342

> <CNNaffinity>
6.1341576576

> <CNN_VS>
4.4215083122

> <CNNaffinity_variance>
0.0361424312

$$$$
[H]c1c([H])c(N([H])C(=O)N([H])[C@]([H])(C(=O)N([H])[C@]([H])(C(=O)N([H])[H])C([H])([H])C([H])([H])C([H])([H])[H])C([H])([H])C([H])(C([H])([H])[H])C([H])([H])[H])c([H])c([H])c1Br


 31 31  0  0  0  0  0  0  0  0999 V2000
   34.8073  -14.0619   36.8714 C   0  0  0  0  0  0  0  0  0  0  0  0
   33.9810  -14.6894   35.8470 N   0  0  0  0  0  0  0  0  0  0  0  0
   33.7936  -16.0910   35.8661 C   0  0  0  0  0  0  0  0  0  0  0  0
   34.3422  -16.8011   36.7709 O   0  0  0  0  0  0  0  0  0  0  0  0
   33.0061  -16.7163   34.8961 N   0  0  0  0  0  0  0  0  0  0  0  0
   33.5490  -14.1134   35.1306 H   0  0  0  0  0  0  0  0  0  0  0  0
   32.5869  -16.0493   34.1678 H   0  0  0  0  0  0  0  0  0  0  0  0
   32.6970  -18.0883   34.7634 C   0  0  0  0  0  0  0  0  0  0  0  0
   31.6085  -18.7223   35.2964 C   0  0  0  0  0  0  0  0  0  0  0  0
   31.3909  -20.1023   35.1304 C   0  0  0  0  0  0  0  0  0  0  0  0
   32.2678  -20.8815   34.4196 C   0  0  0  0  0  0  0  0  0  0  0  0
   31.9706  -22.7570   34.1951 Br  0  0  0  0  0  0  0  0  0  0  0  0
   33.3637  -20.2596   33.8789 C   0  0  0  0  0  0  0  0  0  0  0  0
   33.5771  -18.9124   34.0407 C   0  0  0  0  0  0  0  0  0  0  0  0
   33.8147  -11.7797   37.1761 N   0  0  0  0  0  0  0  0  0  0  0  0
   33.9391  -13.1428   37.6074 C   0  0  0  0  0  0  0  0  0  0  0  0
   33.2984  -13.5397   38.6365 O   0  0  0  0  0  0  0  0  0  0  0  0
   34.3422  -11.4943   36.3285 H   0  0  0  0  0  0  0  0  0  0  0  0
   32.9854  -10.8392   37.8961 C   0  0  0  0  0  0  0  0  0  0  0  0
   31.5908  -10.9321   37.4005 C   0  0  0  0  0  0  0  0  0  0  0  0
   30.6513   -9.9097   37.7705 N   0  0  0  0  0  0  0  0  0  0  0  0
   31.1688  -11.8447   36.6767 O   0  0  0  0  0  0  0  0  0  0  0  0
   30.8173   -9.4105   38.6600 H   0  0  0  0  0  0  0  0  0  0  0  0
   29.8267   -9.6696   37.1718 H   0  0  0  0  0  0  0  0  0  0  0  0
   33.4790   -9.4385   37.6925 C   0  0  0  0  0  0  0  0  0  0  0  0
   35.1593   -8.5543   36.0069 C   0  0  0  0  0  0  0  0  0  0  0  0
   33.7801   -8.9883   36.3263 C   0  0  0  0  0  0  0  0  0  0  0  0
   36.0728  -13.5556   36.3158 C   0  0  0  0  0  0  0  0  0  0  0  0
   37.3650  -14.0393   36.8040 C   0  0  0  0  0  0  0  0  0  0  0  0
   37.0937  -15.1410   37.8748 C   0  0  0  0  0  0  0  0  0  0  0  0
   38.2145  -13.0464   37.5471 C   0  0  0  0  0  0  0  0  0  0  0  0
 26 27  1  0  0  0
 27 25  1  0  0  0
 25 19  1  0  0  0
 19 15  1  0  0  0
 15 16  1  0  0  0
 16 17  2  0  0  0
 16  1  1  0  0  0
  1 28  1  0  0  0
 28 29  1  0  0  0
 29 30  1  0  0  0
 29 31  1  0  0  0
  1  2  1  0  0  0
  2  3  1  0  0  0
  3  4  2  0  0  0
  3  5  1  0  0  0
  5  8  1  0  0  0
  8  9  2  0  0  0
  9 10  1  0  0  0
 10 11  2  0  0  0
 11 12  1  0  0  0
 11 13  1  0  0  0
 13 14  2  0  0  0
 19 20  1  0  0  0
 20 21  1  0  0  0
 20 22  2  0  0  0
 14  8  1  0  0  0
 15 18  1  0  0  0
  2  6  1  0  0  0
  5  7  1  0  0  0
 21 23  1  0  0  0
 21 24  1  0  0  0
M  END
> <minimizedAffinity>
-6.91583

> <CNNscore>
0.7053277493

> <CNNaffinity>
6.5203499794

> <CNN_VS>
4.5989837646

> <CNNaffinity_variance>
0.2592383921

$$$$
[H]c1c([H])c(N([H])C(=O)N([H])[C@]([H])(C(=O)N([H])[C@]([H])(C(=O)N([H])[H])C([H])([H])C([H])([H])C([H])([H])[H])C([H])([H])C([H])(C([H])([H])[H])C([H])([H])[H])c([H])c([H])c1Br


 31 31  0  0  0  0  0  0  0  0999 V2000
   34.4166  -14.4072   36.7058 C   0  0  0  0  0  0  0  0  0  0  0  0
   33.6639  -15.0937   35.6627 N   0  0  0  0  0  0  0  0  0  0  0  0
   33.5659  -16.5043   35.6889 C   0  0  0  0  0  0  0  0  0  0  0  0
   34.1308  -17.1713   36.6163 O   0  0  0  0  0  0  0  0  0  0  0  0
   32.8500  -17.1857   34.7013 N   0  0  0  0  0  0  0  0  0  0  0  0
   33.2182  -14.5518   34.9284 H   0  0  0  0  0  0  0  0  0  0  0  0
   32.4116  -16.5522   33.9547 H   0  0  0  0  0  0  0  0  0  0  0  0
   32.6335  -18.5757   34.5719 C   0  0  0  0  0  0  0  0  0  0  0  0
   33.4435  -19.4572   33.9103 C   0  0  0  0  0  0  0  0  0  0  0  0
   33.1373  -20.8270   33.8139 C   0  0  0  0  0  0  0  0  0  0  0  0
   32.0028  -21.3454   34.3847 C   0  0  0  0  0  0  0  0  0  0  0  0
   31.5880  -23.2074   34.2526 Br  0  0  0  0  0  0  0  0  0  0  0  0
   31.1812  -20.4735   35.0517 C   0  0  0  0  0  0  0  0  0  0  0  0
   31.4793  -19.1360   35.1461 C   0  0  0  0  0  0  0  0  0  0  0  0
   32.4607  -12.8411   36.6168 N   0  0  0  0  0  0  0  0  0  0  0  0
   33.4795  -13.5067   37.3774 C   0  0  0  0  0  0  0  0  0  0  0  0
   33.5659  -13.2995   38.6330 O   0  0  0  0  0  0  0  0  0  0  0  0
   32.4132  -13.0415   35.5991 H   0  0  0  0  0  0  0  0  0  0  0  0
   31.5352  -11.9251   37.2453 C   0  0  0  0  0  0  0  0  0  0  0  0
   32.1535  -10.5798   37.3286 C   0  0  0  0  0  0  0  0  0  0  0  0
   31.4369   -9.4508   36.8026 N   0  0  0  0  0  0  0  0  0  0  0  0
   33.2646  -10.3543   37.8283 O   0  0  0  0  0  0  0  0  0  0  0  0
   30.7640   -9.6284   36.0387 H   0  0  0  0  0  0  0  0  0  0  0  0
   31.5811   -8.4810   37.1696 H   0  0  0  0  0  0  0  0  0  0  0  0
   31.1948  -12.3878   38.6299 C   0  0  0  0  0  0  0  0  0  0  0  0
   29.2791  -12.3876   40.2962 C   0  0  0  0  0  0  0  0  0  0  0  0
   29.7941  -12.7026   38.9440 C   0  0  0  0  0  0  0  0  0  0  0  0
   35.6849  -13.8631   36.1938 C   0  0  0  0  0  0  0  0  0  0  0  0
   36.9747  -14.3705   36.6638 C   0  0  0  0  0  0  0  0  0  0  0  0
   36.6994  -15.4344   37.7712 C   0  0  0  0  0  0  0  0  0  0  0  0
   37.8704  -13.3828   37.3579 C   0  0  0  0  0  0  0  0  0  0  0  0
 26 27  1  0  0  0
 27 25  1  0  0  0
 25 19  1  0  0  0
 19 15  1  0  0  0
 15 16  1  0  0  0
 16 17  2  0  0  0
 16  1  1  0  0  0
  1 28  1  0  0  0
 28 29  1  0  0  0
 29 30  1  0  0  0
 29 31  1  0  0  0
  1  2  1  0  0  0
  2  3  1  0  0  0
  3  4  2  0  0  0
  3  5  1  0  0  0
  5  8  1  0  0  0
  8  9  2  0  0  0
  9 10  1  0  0  0
 10 11  2  0  0  0
 11 12  1  0  0  0
 11 13  1  0  0  0
 13 14  2  0  0  0
 19 20  1  0  0  0
 20 21  1  0  0  0
 20 22  2  0  0  0
 14  8  1  0  0  0
 15 18  1  0  0  0
  2  6  1  0  0  0
  5  7  1  0  0  0
 21 23  1  0  0  0
 21 24  1  0  0  0
M  END
> <minimizedAffinity>
-7.17928

> <CNNscore>
0.6278696656

> <CNNaffinity>
6.0469331741

> <CNN_VS>
3.7966859341

> <CNNaffinity_variance>
0.0468558259

$$$$
[H]c1c([H])c(N([H])C(=O)N([H])[C@]([H])(C(=O)N([H])[C@]([H])(C(=O)N([H])[H])C([H])([H])C([H])([H])C([H])([H])[H])C([H])([H])C([H])(C([H])([H])[H])C([H])([H])[H])c([H])c([H])c1Br


 31 31  0  0  0  0  0  0  0  0999 V2000
   33.0341  -11.3777   37.7957 C   0  0  0  0  0  0  0  0  0  0  0  0
   33.7293  -12.1647   36.7842 N   0  0  0  0  0  0  0  0  0  0  0  0
   34.2063  -13.4550   37.1126 C   0  0  0  0  0  0  0  0  0  0  0  0
   34.0307  -13.9270   38.2832 O   0  0  0  0  0  0  0  0  0  0  0  0
   34.8751  -14.2292   36.1611 N   0  0  0  0  0  0  0  0  0  0  0  0
   33.8638  -11.7781   35.8547 H   0  0  0  0  0  0  0  0  0  0  0  0
   34.9873  -13.7567   35.2044 H   0  0  0  0  0  0  0  0  0  0  0  0
   35.4050  -15.5313   36.3004 C   0  0  0  0  0  0  0  0  0  0  0  0
   36.5924  -15.8563   36.8966 C   0  0  0  0  0  0  0  0  0  0  0  0
   37.0531  -17.1835   36.9718 C   0  0  0  0  0  0  0  0  0  0  0  0
   36.3257  -18.2211   36.4466 C   0  0  0  0  0  0  0  0  0  0  0  0
   36.9534  -20.0244   36.5495 Br  0  0  0  0  0  0  0  0  0  0  0  0
   35.1328  -17.9105   35.8461 C   0  0  0  0  0  0  0  0  0  0  0  0
   34.6824  -16.6150   35.7720 C   0  0  0  0  0  0  0  0  0  0  0  0
   30.8318  -11.7798   38.9247 N   0  0  0  0  0  0  0  0  0  0  0  0
   31.6230  -11.7574   37.7276 C   0  0  0  0  0  0  0  0  0  0  0  0
   31.0908  -12.0788   36.6138 O   0  0  0  0  0  0  0  0  0  0  0  0
   31.2950  -11.5021   39.8115 H   0  0  0  0  0  0  0  0  0  0  0  0
   29.4414  -12.1752   38.8960 C   0  0  0  0  0  0  0  0  0  0  0  0
   28.5852  -10.9645   38.8756 C   0  0  0  0  0  0  0  0  0  0  0  0
   29.1084   -9.7333   39.4003 N   0  0  0  0  0  0  0  0  0  0  0  0
   27.4294  -10.9370   38.4304 O   0  0  0  0  0  0  0  0  0  0  0  0
   29.8377   -9.7989   40.1295 H   0  0  0  0  0  0  0  0  0  0  0  0
   28.7730   -8.7997   39.0660 H   0  0  0  0  0  0  0  0  0  0  0  0
   29.1001  -12.9888   40.1079 C   0  0  0  0  0  0  0  0  0  0  0  0
   28.7030  -15.4905   40.2820 C   0  0  0  0  0  0  0  0  0  0  0  0
   29.6445  -14.3492   40.2205 C   0  0  0  0  0  0  0  0  0  0  0  0
   33.3930   -9.9523   37.7184 C   0  0  0  0  0  0  0  0  0  0  0  0
   32.6944   -9.0404   36.8114 C   0  0  0  0  0  0  0  0  0  0  0  0
   33.6987   -7.9273   36.3796 C   0  0  0  0  0  0  0  0  0  0  0  0
   31.5523   -8.2579   37.3969 C   0  0  0  0  0  0  0  0  0  0  0  0
 26 27  1  0  0  0
 27 25  1  0  0  0
 25 19  1  0  0  0
 19 15  1  0  0  0
 15 16  1  0  0  0
 16 17  2  0  0  0
 16  1  1  0  0  0
  1 28  1  0  0  0
 28 29  1  0  0  0
 29 30  1  0  0  0
 29 31  1  0  0  0
  1  2  1  0  0  0
  2  3  1  0  0  0
  3  4  2  0  0  0
  3  5  1  0  0  0
  5  8  1  0  0  0
  8  9  2  0  0  0
  9 10  1  0  0  0
 10 11  2  0  0  0
 11 12  1  0  0  0
 11 13  1  0  0  0
 13 14  2  0  0  0
 19 20  1  0  0  0
 20 21  1  0  0  0
 20 22  2  0  0  0
 14  8  1  0  0  0
 15 18  1  0  0  0
  2  6  1  0  0  0
  5  7  1  0  0  0
 21 23  1  0  0  0
 21 24  1  0  0  0
M  END
> <minimizedAffinity>
-7.43039

> <CNNscore>
0.5355158448

> <CNNaffinity>
6.3956422806

> <CNN_VS>
3.4249677658

> <CNNaffinity_variance>
0.1292694062

$$$$
[H]c1c([H])c(N([H])C(=O)N([H])[C@]([H])(C(=O)N([H])[C@]([H])(C(=O)N([H])[H])C([H])([H])C([H])([H])C([H])([H])[H])C([H])([H])C([H])(C([H])([H])[H])C([H])([H])[H])c([H])c([H])c1Br


 31 31  0  0  0  0  0  0  0  0999 V2000
   34.6354  -14.1267   36.7142 C   0  0  0  0  0  0  0  0  0  0  0  0
   33.7889  -14.8077   35.7418 N   0  0  0  0  0  0  0  0  0  0  0  0
   33.7330  -16.2209   35.7365 C   0  0  0  0  0  0  0  0  0  0  0  0
   34.4170  -16.8948   36.5743 O   0  0  0  0  0  0  0  0  0  0  0  0
   32.9293  -16.8972   34.8152 N   0  0  0  0  0  0  0  0  0  0  0  0
   33.2485  -14.2602   35.0787 H   0  0  0  0  0  0  0  0  0  0  0  0
   32.3923  -16.2576   34.1418 H   0  0  0  0  0  0  0  0  0  0  0  0
   32.7376  -18.2891   34.6692 C   0  0  0  0  0  0  0  0  0  0  0  0
   33.5522  -19.1448   33.9797 C   0  0  0  0  0  0  0  0  0  0  0  0
   33.2711  -20.5188   33.8687 C   0  0  0  0  0  0  0  0  0  0  0  0
   32.1579  -21.0679   34.4525 C   0  0  0  0  0  0  0  0  0  0  0  0
   31.7773  -22.9356   34.3004 Br  0  0  0  0  0  0  0  0  0  0  0  0
   31.3321  -20.2222   35.1475 C   0  0  0  0  0  0  0  0  0  0  0  0
   31.6056  -18.8806   35.2562 C   0  0  0  0  0  0  0  0  0  0  0  0
   32.5374  -13.2950   37.8065 N   0  0  0  0  0  0  0  0  0  0  0  0
   33.8412  -13.0302   37.2684 C   0  0  0  0  0  0  0  0  0  0  0  0
   34.2934  -11.8375   37.2687 O   0  0  0  0  0  0  0  0  0  0  0  0
   32.2059  -14.2789   37.7995 H   0  0  0  0  0  0  0  0  0  0  0  0
   31.7164  -12.2301   38.3382 C   0  0  0  0  0  0  0  0  0  0  0  0
   30.8127  -12.7775   39.3788 C   0  0  0  0  0  0  0  0  0  0  0  0
   31.2365  -12.7527   40.7516 N   0  0  0  0  0  0  0  0  0  0  0  0
   29.6973  -13.2641   39.1459 O   0  0  0  0  0  0  0  0  0  0  0  0
   32.2533  -12.7681   40.9358 H   0  0  0  0  0  0  0  0  0  0  0  0
   30.5529  -12.7203   41.5438 H   0  0  0  0  0  0  0  0  0  0  0  0
   30.8869  -11.6128   37.2529 C   0  0  0  0  0  0  0  0  0  0  0  0
   31.6691   -9.1979   37.3095 C   0  0  0  0  0  0  0  0  0  0  0  0
   30.5630  -10.1819   37.3401 C   0  0  0  0  0  0  0  0  0  0  0  0
   35.9690  -13.8336   36.1646 C   0  0  0  0  0  0  0  0  0  0  0  0
   37.1853  -14.3056   36.8279 C   0  0  0  0  0  0  0  0  0  0  0  0
   36.7603  -15.1927   38.0389 C   0  0  0  0  0  0  0  0  0  0  0  0
   38.0515  -13.2551   37.4649 C   0  0  0  0  0  0  0  0  0  0  0  0
 26 27  1  0  0  0
 27 25  1  0  0  0
 25 19  1  0  0  0
 19 15  1  0  0  0
 15 16  1  0  0  0
 16 17  2  0  0  0
 16  1  1  0  0  0
  1 28  1  0  0  0
 28 29  1  0  0  0
 29 30  1  0  0  0
 29 31  1  0  0  0
  1  2  1  0  0  0
  2  3  1  0  0  0
  3  4  2  0  0  0
  3  5  1  0  0  0
  5  8  1  0  0  0
  8  9  2  0  0  0
  9 10  1  0  0  0
 10 11  2  0  0  0
 11 12  1  0  0  0
 11 13  1  0  0  0
 13 14  2  0  0  0
 19 20  1  0  0  0
 20 21  1  0  0  0
 20 22  2  0  0  0
 14  8  1  0  0  0
 15 18  1  0  0  0
  2  6  1  0  0  0
  5  7  1  0  0  0
 21 23  1  0  0  0
 21 24  1  0  0  0
M  END
> <minimizedAffinity>
-7.63622

> <CNNscore>
0.5335642695

> <CNNaffinity>
5.9907622337

> <CNN_VS>
3.1964566708

> <CNNaffinity_variance>
0.0580779612

$$$$
[H]c1c([H])c(N([H])C(=O)N([H])[C@]([H])(C(=O)N([H])[C@]([H])(C(=O)N([H])[H])C([H])([H])C([H])([H])C([H])([H])[H])C([H])([H])C([H])(C([H])([H])[H])C([H])([H])[H])c([H])c([H])c1Br


 31 31  0  0  0  0  0  0  0  0999 V2000
   35.6858  -18.0089   35.4581 C   0  0  0  0  0  0  0  0  0  0  0  0
   34.3393  -18.1571   34.9187 N   0  0  0  0  0  0  0  0  0  0  0  0
   33.5543  -19.2692   35.3023 C   0  0  0  0  0  0  0  0  0  0  0  0
   34.0192  -20.1358   36.1128 O   0  0  0  0  0  0  0  0  0  0  0  0
   32.2610  -19.4338   34.7999 N   0  0  0  0  0  0  0  0  0  0  0  0
   33.9795  -17.4604   34.2732 H   0  0  0  0  0  0  0  0  0  0  0  0
   31.9486  -18.6654   34.1195 H   0  0  0  0  0  0  0  0  0  0  0  0
   31.3334  -20.4627   35.0767 C   0  0  0  0  0  0  0  0  0  0  0  0
   31.5801  -21.8065   35.0105 C   0  0  0  0  0  0  0  0  0  0  0  0
   30.5861  -22.7639   35.2839 C   0  0  0  0  0  0  0  0  0  0  0  0
   29.3134  -22.3899   35.6330 C   0  0  0  0  0  0  0  0  0  0  0  0
   27.9635  -23.6924   36.0040 Br  0  0  0  0  0  0  0  0  0  0  0  0
   29.0514  -21.0459   35.7038 C   0  0  0  0  0  0  0  0  0  0  0  0
   30.0211  -20.1105   35.4368 C   0  0  0  0  0  0  0  0  0  0  0  0
   35.0284  -15.7117   36.2176 N   0  0  0  0  0  0  0  0  0  0  0  0
   35.6092  -16.9917   36.5067 C   0  0  0  0  0  0  0  0  0  0  0  0
   36.0636  -17.2289   37.6748 O   0  0  0  0  0  0  0  0  0  0  0  0
   34.6591  -15.5574   35.2595 H   0  0  0  0  0  0  0  0  0  0  0  0
   34.9608  -14.6756   37.2239 C   0  0  0  0  0  0  0  0  0  0  0  0
   33.6818  -13.9377   37.0862 C   0  0  0  0  0  0  0  0  0  0  0  0
   32.9943  -13.9664   35.8247 N   0  0  0  0  0  0  0  0  0  0  0  0
   33.1529  -13.2858   37.9973 O   0  0  0  0  0  0  0  0  0  0  0  0
   33.5649  -14.1099   34.9751 H   0  0  0  0  0  0  0  0  0  0  0  0
   31.9565  -13.8479   35.7545 H   0  0  0  0  0  0  0  0  0  0  0  0
   36.0961  -13.7102   37.0630 C   0  0  0  0  0  0  0  0  0  0  0  0
   38.5472  -13.1653   37.4394 C   0  0  0  0  0  0  0  0  0  0  0  0
   37.3543  -13.9760   37.7745 C   0  0  0  0  0  0  0  0  0  0  0  0
   36.6868  -17.8569   34.3897 C   0  0  0  0  0  0  0  0  0  0  0  0
   37.7607  -18.8348   34.2094 C   0  0  0  0  0  0  0  0  0  0  0  0
   38.4399  -19.0655   35.5948 C   0  0  0  0  0  0  0  0  0  0  0  0
   38.9089  -18.4150   33.3347 C   0  0  0  0  0  0  0  0  0  0  0  0
 26 27  1  0  0  0
 27 25  1  0  0  0
 25 19  1  0  0  0
 19 15  1  0  0  0
 15 16  1  0  0  0
 16 17  2  0  0  0
 16  1  1  0  0  0
  1 28  1  0  0  0
 28 29  1  0  0  0
 29 30  1  0  0  0
 29 31  1  0  0  0
  1  2  1  0  0  0
  2  3  1  0  0  0
  3  4  2  0  0  0
  3  5  1  0  0  0
  5  8  1  0  0  0
  8  9  2  0  0  0
  9 10  1  0  0  0
 10 11  2  0  0  0
 11 12  1  0  0  0
 11 13  1  0  0  0
 13 14  2  0  0  0
 19 20  1  0  0  0
 20 21  1  0  0  0
 20 22  2  0  0  0
 14  8  1  0  0  0
 15 18  1  0  0  0
  2  6  1  0  0  0
  5  7  1  0  0  0
 21 23  1  0  0  0
 21 24  1  0  0  0
M  END
> <minimizedAffinity>
-6.66066

> <CNNscore>
0.4516374469

> <CNNaffinity>
5.3671741486

> <CNN_VS>
2.4240167141

> <CNNaffinity_variance>
0.1490124613

$$$$
[H]c1c([H])c(N([H])C(=O)N([H])[C@]([H])(C(=O)N([H])[C@]([H])(C(=O)N([H])[H])C([H])([H])C([H])([H])C([H])([H])[H])C([H])([H])C([H])(C([H])([H])[H])C([H])([H])[H])c([H])c([H])c1Br


 31 31  0  0  0  0  0  0  0  0999 V2000
   36.6494  -17.2664   34.8547 C   0  0  0  0  0  0  0  0  0  0  0  0
   35.6358  -17.9641   34.0727 N   0  0  0  0  0  0  0  0  0  0  0  0
   34.5998  -18.6596   34.7383 C   0  0  0  0  0  0  0  0  0  0  0  0
   34.5516  -18.6772   36.0117 O   0  0  0  0  0  0  0  0  0  0  0  0
   33.6163  -19.3356   34.0118 N   0  0  0  0  0  0  0  0  0  0  0  0
   35.6846  -17.9435   33.0584 H   0  0  0  0  0  0  0  0  0  0  0  0
   33.7331  -19.2775   32.9469 H   0  0  0  0  0  0  0  0  0  0  0  0
   32.5086  -20.0655   34.4976 C   0  0  0  0  0  0  0  0  0  0  0  0
   32.4689  -21.4152   34.7166 C   0  0  0  0  0  0  0  0  0  0  0  0
   31.3109  -22.0634   35.1838 C   0  0  0  0  0  0  0  0  0  0  0  0
   30.1593  -21.3652   35.4440 C   0  0  0  0  0  0  0  0  0  0  0  0
   28.5863  -22.2479   36.0789 Br  0  0  0  0  0  0  0  0  0  0  0  0
   30.1843  -20.0112   35.2295 C   0  0  0  0  0  0  0  0  0  0  0  0
   31.3143  -19.3775   34.7730 C   0  0  0  0  0  0  0  0  0  0  0  0
   38.6117  -18.6147   34.0686 N   0  0  0  0  0  0  0  0  0  0  0  0
   37.7143  -18.2333   35.1215 C   0  0  0  0  0  0  0  0  0  0  0  0
   37.8466  -18.7490   36.2807 O   0  0  0  0  0  0  0  0  0  0  0  0
   38.4811  -18.1670   33.1409 H   0  0  0  0  0  0  0  0  0  0  0  0
   39.6584  -19.5868   34.2921 C   0  0  0  0  0  0  0  0  0  0  0  0
   40.7652  -19.3481   33.3344 C   0  0  0  0  0  0  0  0  0  0  0  0
   40.8268  -20.1329   32.1323 N   0  0  0  0  0  0  0  0  0  0  0  0
   41.6579  -18.5049   33.4988 O   0  0  0  0  0  0  0  0  0  0  0  0
   40.4017  -21.0746   32.1568 H   0  0  0  0  0  0  0  0  0  0  0  0
   41.2812  -19.7771   31.2590 H   0  0  0  0  0  0  0  0  0  0  0  0
   39.1367  -20.9778   34.0918 C   0  0  0  0  0  0  0  0  0  0  0  0
   40.2057  -21.7740   36.2528 C   0  0  0  0  0  0  0  0  0  0  0  0
   39.1396  -21.9034   35.2333 C   0  0  0  0  0  0  0  0  0  0  0  0
   36.0560  -16.5306   35.9830 C   0  0  0  0  0  0  0  0  0  0  0  0
   36.4357  -15.1471   36.2725 C   0  0  0  0  0  0  0  0  0  0  0  0
   36.8018  -15.0547   37.7862 C   0  0  0  0  0  0  0  0  0  0  0  0
   35.3574  -14.1109   36.1207 C   0  0  0  0  0  0  0  0  0  0  0  0
 26 27  1  0  0  0
 27 25  1  0  0  0
 25 19  1  0  0  0
 19 15  1  0  0  0
 15 16  1  0  0  0
 16 17  2  0  0  0
 16  1  1  0  0  0
  1 28  1  0  0  0
 28 29  1  0  0  0
 29 30  1  0  0  0
 29 31  1  0  0  0
  1  2  1  0  0  0
  2  3  1  0  0  0
  3  4  2  0  0  0
  3  5  1  0  0  0
  5  8  1  0  0  0
  8  9  2  0  0  0
  9 10  1  0  0  0
 10 11  2  0  0  0
 11 12  1  0  0  0
 11 13  1  0  0  0
 13 14  2  0  0  0
 19 20  1  0  0  0
 20 21  1  0  0  0
 20 22  2  0  0  0
 14  8  1  0  0  0
 15 18  1  0  0  0
  2  6  1  0  0  0
  5  7  1  0  0  0
 21 23  1  0  0  0
 21 24  1  0  0  0
M  END
> <minimizedAffinity>
-6.36484

> <CNNscore>
0.4406309128

> <CNNaffinity>
5.2010169029

> <CNN_VS>
2.2917287350

> <CNNaffinity_variance>
0.3039506972

$$$$
[H]c1c([H])c(N([H])C(=O)N([H])[C@]([H])(C(=O)N([H])[C@]([H])(C(=O)N([H])[H])C([H])([H])C([H])([H])C([H])([H])[H])C([H])([H])C([H])(C([H])([H])[H])C([H])([H])[H])c([H])c([H])c1Br


 31 31  0  0  0  0  0  0  0  0999 V2000
   36.3868  -16.9732   35.1409 C   0  0  0  0  0  0  0  0  0  0  0  0
   35.4260  -17.6824   34.3044 N   0  0  0  0  0  0  0  0  0  0  0  0
   34.3474  -18.3673   34.9107 C   0  0  0  0  0  0  0  0  0  0  0  0
   34.2154  -18.3655   36.1783 O   0  0  0  0  0  0  0  0  0  0  0  0
   33.4130  -19.0539   34.1313 N   0  0  0  0  0  0  0  0  0  0  0  0
   35.5414  -17.6772   33.2953 H   0  0  0  0  0  0  0  0  0  0  0  0
   33.5997  -19.0120   33.0757 H   0  0  0  0  0  0  0  0  0  0  0  0
   32.2747  -19.7760   34.5540 C   0  0  0  0  0  0  0  0  0  0  0  0
   31.0435  -19.2471   34.8284 C   0  0  0  0  0  0  0  0  0  0  0  0
   29.9684  -20.0422   35.2660 C   0  0  0  0  0  0  0  0  0  0  0  0
   30.1072  -21.3959   35.4382 C   0  0  0  0  0  0  0  0  0  0  0  0
   28.6450  -22.4750   36.0332 Br  0  0  0  0  0  0  0  0  0  0  0  0
   31.3359  -21.9404   35.1665 C   0  0  0  0  0  0  0  0  0  0  0  0
   32.3861  -21.1649   34.7395 C   0  0  0  0  0  0  0  0  0  0  0  0
   37.9223  -18.8736   34.5782 N   0  0  0  0  0  0  0  0  0  0  0  0
   37.3963  -17.9520   35.5443 C   0  0  0  0  0  0  0  0  0  0  0  0
   37.8068  -18.0005   36.7511 O   0  0  0  0  0  0  0  0  0  0  0  0
   37.5733  -18.7983   33.6032 H   0  0  0  0  0  0  0  0  0  0  0  0
   38.9019  -19.8701   34.9499 C   0  0  0  0  0  0  0  0  0  0  0  0
   39.6463  -20.3035   33.7427 C   0  0  0  0  0  0  0  0  0  0  0  0
   39.3536  -19.6777   32.4827 N   0  0  0  0  0  0  0  0  0  0  0  0
   40.5189  -21.1830   33.7417 O   0  0  0  0  0  0  0  0  0  0  0  0
   38.4046  -19.2895   32.3535 H   0  0  0  0  0  0  0  0  0  0  0  0
   40.0644  -19.6108   31.7171 H   0  0  0  0  0  0  0  0  0  0  0  0
   38.2326  -21.0644   35.5604 C   0  0  0  0  0  0  0  0  0  0  0  0
   39.7754  -20.8426   37.5646 C   0  0  0  0  0  0  0  0  0  0  0  0
   38.5645  -21.4280   36.9451 C   0  0  0  0  0  0  0  0  0  0  0  0
   35.7181  -16.1705   36.1778 C   0  0  0  0  0  0  0  0  0  0  0  0
   36.1153  -14.7869   36.4422 C   0  0  0  0  0  0  0  0  0  0  0  0
   36.8725  -14.7553   37.8060 C   0  0  0  0  0  0  0  0  0  0  0  0
   35.0020  -13.7984   36.6497 C   0  0  0  0  0  0  0  0  0  0  0  0
 26 27  1  0  0  0
 27 25  1  0  0  0
 25 19  1  0  0  0
 19 15  1  0  0  0
 15 16  1  0  0  0
 16 17  2  0  0  0
 16  1  1  0  0  0
  1 28  1  0  0  0
 28 29  1  0  0  0
 29 30  1  0  0  0
 29 31  1  0  0  0
  1  2  1  0  0  0
  2  3  1  0  0  0
  3  4  2  0  0  0
  3  5  1  0  0  0
  5  8  1  0  0  0
  8  9  2  0  0  0
  9 10  1  0  0  0
 10 11  2  0  0  0
 11 12  1  0  0  0
 11 13  1  0  0  0
 13 14  2  0  0  0
 19 20  1  0  0  0
 20 21  1  0  0  0
 20 22  2  0  0  0
 14  8  1  0  0  0
 15 18  1  0  0  0
  2  6  1  0  0  0
  5  7  1  0  0  0
 21 23  1  0  0  0
 21 24  1  0  0  0
M  END
> <minimizedAffinity>
-5.87496

> <CNNscore>
0.4297150373

> <CNNaffinity>
5.3380055428

> <CNN_VS>
2.2938213348

> <CNNaffinity_variance>
0.2789323628

$$$$
[H]c1c([H])c(N([H])C(=O)N([H])[C@]([H])(C(=O)N([H])[C@]([H])(C(=O)N([H])[H])C([H])([H])C([H])([H])C([H])([H])[H])C([H])([H])C([H])(C([H])([H])[H])C([H])([H])[H])c([H])c([H])c1Br


 31 31  0  0  0  0  0  0  0  0999 V2000
   37.1268  -18.9387   35.7008 C   0  0  0  0  0  0  0  0  0  0  0  0
   37.3613  -17.5016   35.6259 N   0  0  0  0  0  0  0  0  0  0  0  0
   36.3850  -16.6099   36.1277 C   0  0  0  0  0  0  0  0  0  0  0  0
   35.3081  -17.0578   36.6413 O   0  0  0  0  0  0  0  0  0  0  0  0
   36.5860  -15.2286   36.0682 N   0  0  0  0  0  0  0  0  0  0  0  0
   38.2231  -17.1561   35.2142 H   0  0  0  0  0  0  0  0  0  0  0  0
   37.5132  -14.9346   35.6156 H   0  0  0  0  0  0  0  0  0  0  0  0
   35.7386  -14.1951   36.5259 C   0  0  0  0  0  0  0  0  0  0  0  0
   34.7067  -14.3352   37.4127 C   0  0  0  0  0  0  0  0  0  0  0  0
   33.8984  -13.2499   37.7975 C   0  0  0  0  0  0  0  0  0  0  0  0
   34.1107  -11.9906   37.2969 C   0  0  0  0  0  0  0  0  0  0  0  0
   33.0109  -10.5167   37.8207 Br  0  0  0  0  0  0  0  0  0  0  0  0
   35.1421  -11.8348   36.4069 C   0  0  0  0  0  0  0  0  0  0  0  0
   35.9316  -12.8939   36.0305 C   0  0  0  0  0  0  0  0  0  0  0  0
   34.7683  -19.7887   35.7368 N   0  0  0  0  0  0  0  0  0  0  0  0
   35.8587  -19.1941   35.0177 C   0  0  0  0  0  0  0  0  0  0  0  0
   35.7160  -18.9019   33.7843 O   0  0  0  0  0  0  0  0  0  0  0  0
   34.9164  -20.0035   36.7418 H   0  0  0  0  0  0  0  0  0  0  0  0
   33.5106  -20.0780   35.0849 C   0  0  0  0  0  0  0  0  0  0  0  0
   32.5791  -18.9416   35.2851 C   0  0  0  0  0  0  0  0  0  0  0  0
   32.8724  -17.6826   34.6577 N   0  0  0  0  0  0  0  0  0  0  0  0
   31.5465  -19.0000   35.9672 O   0  0  0  0  0  0  0  0  0  0  0  0
   33.8644  -17.4677   34.4634 H   0  0  0  0  0  0  0  0  0  0  0  0
   32.1206  -17.0004   34.4021 H   0  0  0  0  0  0  0  0  0  0  0  0
   32.8926  -21.3171   35.6591 C   0  0  0  0  0  0  0  0  0  0  0  0
   30.7082  -22.5283   35.2029 C   0  0  0  0  0  0  0  0  0  0  0  0
   32.0826  -22.1733   34.7812 C   0  0  0  0  0  0  0  0  0  0  0  0
   37.3156  -19.4508   37.0678 C   0  0  0  0  0  0  0  0  0  0  0  0
   38.3272  -20.4654   37.3667 C   0  0  0  0  0  0  0  0  0  0  0  0
   38.0757  -20.9841   38.8164 C   0  0  0  0  0  0  0  0  0  0  0  0
   39.7537  -19.9941   37.4181 C   0  0  0  0  0  0  0  0  0  0  0  0
 26 27  1  0  0  0
 27 25  1  0  0  0
 25 19  1  0  0  0
 19 15  1  0  0  0
 15 16  1  0  0  0
 16 17  2  0  0  0
 16  1  1  0  0  0
  1 28  1  0  0  0
 28 29  1  0  0  0
 29 30  1  0  0  0
 29 31  1  0  0  0
  1  2  1  0  0  0
  2  3  1  0  0  0
  3  4  2  0  0  0
  3  5  1  0  0  0
  5  8  1  0  0  0
  8  9  2  0  0  0
  9 10  1  0  0  0
 10 11  2  0  0  0
 11 12  1  0  0  0
 11 13  1  0  0  0
 13 14  2  0  0  0
 19 20  1  0  0  0
 20 21  1  0  0  0
 20 22  2  0  0  0
 14  8  1  0  0  0
 15 18  1  0  0  0
  2  6  1  0  0  0
  5  7  1  0  0  0
 21 23  1  0  0  0
 21 24  1  0  0  0
M  END
> <minimizedAffinity>
-6.53444

> <CNNscore>
0.4157297611

> <CNNaffinity>
5.7175731659

> <CNN_VS>
2.3769652843

> <CNNaffinity_variance>
0.1095266193

$$$$
[H]OC(C([H])([H])[H])(C([H])([H])[H])C([H])([H])C(=O)N([H])C([H])([H])C([H])([H])c1c([H])c([H])c2nc([H])nc(N([H])c3c([H])c([H])c(Oc4c([H])c([H])c([H])c(C(F)(F)F)c4[H])c(Cl)c3[H])c2c1[H]


 42 45  0  0  0  0  0  0  0  0999 V2000
   33.8892  -12.9977   37.1550 C   0  0  0  0  0  0  0  0  0  0  0  0
   35.2016  -12.6911   37.3790 C   0  0  0  0  0  0  0  0  0  0  0  0
   36.1886  -13.5656   37.0445 C   0  0  0  0  0  0  0  0  0  0  0  0
   35.8985  -14.7961   36.4709 C   0  0  0  0  0  0  0  0  0  0  0  0
   36.9298  -15.6148   36.1808 N   0  0  0  0  0  0  0  0  0  0  0  0
   36.6664  -16.8150   35.6448 C   0  0  0  0  0  0  0  0  0  0  0  0
   35.3906  -17.1168   35.4363 N   0  0  0  0  0  0  0  0  0  0  0  0
   34.3258  -16.3729   35.6910 C   0  0  0  0  0  0  0  0  0  0  0  0
   34.5759  -15.1123   36.2470 C   0  0  0  0  0  0  0  0  0  0  0  0
   33.5819  -14.2478   36.5715 C   0  0  0  0  0  0  0  0  0  0  0  0
   33.0067  -16.8197   35.4945 N   0  0  0  0  0  0  0  0  0  0  0  0
   32.1684  -16.2104   35.6764 H   0  0  0  0  0  0  0  0  0  0  0  0
   32.6974  -18.1302   35.0442 C   0  0  0  0  0  0  0  0  0  0  0  0
   33.5213  -18.9168   34.3008 C   0  0  0  0  0  0  0  0  0  0  0  0
   33.2033  -20.2403   33.9826 C   0  0  0  0  0  0  0  0  0  0  0  0
   31.9942  -20.7994   34.4331 C   0  0  0  0  0  0  0  0  0  0  0  0
   31.1454  -20.0175   35.1822 C   0  0  0  0  0  0  0  0  0  0  0  0
   29.5916  -20.6443   35.7662 Cl  0  0  0  0  0  0  0  0  0  0  0  0
   31.5100  -18.7212   35.4677 C   0  0  0  0  0  0  0  0  0  0  0  0
   31.7532  -22.0776   34.0996 O   0  0  0  0  0  0  0  0  0  0  0  0
   31.6687  -23.2660   34.7207 C   0  0  0  0  0  0  0  0  0  0  0  0
   32.4054  -23.4556   35.9016 C   0  0  0  0  0  0  0  0  0  0  0  0
   32.3331  -24.6549   36.5517 C   0  0  0  0  0  0  0  0  0  0  0  0
   31.5418  -25.6615   36.0429 C   0  0  0  0  0  0  0  0  0  0  0  0
   30.8096  -25.5090   34.8876 C   0  0  0  0  0  0  0  0  0  0  0  0
   30.8747  -24.3102   34.2304 C   0  0  0  0  0  0  0  0  0  0  0  0
   29.9995  -26.6545   34.3946 C   0  0  0  0  0  0  0  0  0  0  0  0
   29.0575  -26.1954   33.4536 F   0  0  0  0  0  0  0  0  0  0  0  0
   30.8451  -27.5001   33.7066 F   0  0  0  0  0  0  0  0  0  0  0  0
   29.4008  -27.3419   35.4118 F   0  0  0  0  0  0  0  0  0  0  0  0
   32.8096  -12.1189   37.5409 C   0  0  0  0  0  0  0  0  0  0  0  0
   31.5425  -12.7699   38.0572 C   0  0  0  0  0  0  0  0  0  0  0  0
   29.3367  -11.1306   37.9456 C   0  0  0  0  0  0  0  0  0  0  0  0
   28.3343  -11.2658   37.2169 O   0  0  0  0  0  0  0  0  0  0  0  0
   30.4395  -11.9487   38.0026 N   0  0  0  0  0  0  0  0  0  0  0  0
   29.8214  -12.8297   37.1592 H   0  0  0  0  0  0  0  0  0  0  0  0
   29.2862   -9.9184   38.8464 C   0  0  0  0  0  0  0  0  0  0  0  0
   28.3081  -11.3932   40.5554 C   0  0  0  0  0  0  0  0  0  0  0  0
   28.3718  -10.0074   39.9936 C   0  0  0  0  0  0  0  0  0  0  0  0
   26.9987   -9.4092   39.7362 C   0  0  0  0  0  0  0  0  0  0  0  0
   28.9647   -9.1908   41.0217 O   0  0  0  0  0  0  0  0  0  0  0  0
   29.3298   -8.3960   40.5474 H   0  0  0  0  0  0  0  0  0  0  0  0
 38 39  1  0  0  0
 39 40  1  0  0  0
 39 41  1  0  0  0
 39 37  1  0  0  0
 37 33  1  0  0  0
 33 34  2  0  0  0
 33 35  1  0  0  0
 35 32  1  0  0  0
 32 31  1  0  0  0
 31  1  1  0  0  0
  1  2  2  0  0  0
  2  3  1  0  0  0
  3  4  2  0  0  0
  4  5  1  0  0  0
  5  6  2  0  0  0
  6  7  1  0  0  0
  7  8  2  0  0  0
  8 11  1  0  0  0
 11 13  1  0  0  0
 13 14  2  0  0  0
 14 15  1  0  0  0
 15 16  2  0  0  0
 16 20  1  0  0  0
 20 21  1  0  0  0
 21 22  2  0  0  0
 22 23  1  0  0  0
 23 24  2  0  0  0
 24 25  1  0  0  0
 25 27  1  0  0  0
 27 28  1  0  0  0
 27 29  1  0  0  0
 27 30  1  0  0  0
 25 26  2  0  0  0
 16 17  1  0  0  0
 17 18  1  0  0  0
 17 19  2  0  0  0
  8  9  1  0  0  0
  9 10  2  0  0  0
 10  1  1  0  0  0
  9  4  1  0  0  0
 19 13  1  0  0  0
 26 21  1  0  0  0
 41 42  1  0  0  0
 35 36  1  0  0  0
 11 12  1  0  0  0
M  END
> <minimizedAffinity>
-8.51176

> <CNNscore>
0.5524311662

> <CNNaffinity>
6.8444123268

> <CNN_VS>
3.7810666561

> <CNNaffinity_variance>
0.0976896435

$$$$
[H]OC(C([H])([H])[H])(C([H])([H])[H])C([H])([H])C(=O)N([H])C([H])([H])C([H])([H])c1c([H])c([H])c2nc([H])nc(N([H])c3c([H])c([H])c(Oc4c([H])c([H])c([H])c(C(F)(F)F)c4[H])c(Cl)c3[H])c2c1[H]


 42 45  0  0  0  0  0  0  0  0999 V2000
   34.5832  -13.4531   37.0798 C   0  0  0  0  0  0  0  0  0  0  0  0
   35.8327  -13.3927   37.6288 C   0  0  0  0  0  0  0  0  0  0  0  0
   36.6727  -14.4613   37.5689 C   0  0  0  0  0  0  0  0  0  0  0  0
   36.2903  -15.6463   36.9551 C   0  0  0  0  0  0  0  0  0  0  0  0
   37.1725  -16.6659   36.9489 N   0  0  0  0  0  0  0  0  0  0  0  0
   36.8121  -17.8240   36.3778 C   0  0  0  0  0  0  0  0  0  0  0  0
   35.5943  -17.8858   35.8532 N   0  0  0  0  0  0  0  0  0  0  0  0
   34.6739  -16.9351   35.8175 C   0  0  0  0  0  0  0  0  0  0  0  0
   35.0290  -15.7141   36.4037 C   0  0  0  0  0  0  0  0  0  0  0  0
   34.1828  -14.6547   36.4522 C   0  0  0  0  0  0  0  0  0  0  0  0
   33.3825  -17.1297   35.2952 N   0  0  0  0  0  0  0  0  0  0  0  0
   32.6934  -16.3432   35.1784 H   0  0  0  0  0  0  0  0  0  0  0  0
   32.8998  -18.4024   34.8914 C   0  0  0  0  0  0  0  0  0  0  0  0
   33.5619  -19.2683   34.0778 C   0  0  0  0  0  0  0  0  0  0  0  0
   33.0824  -20.5531   33.8066 C   0  0  0  0  0  0  0  0  0  0  0  0
   31.8747  -20.9872   34.3812 C   0  0  0  0  0  0  0  0  0  0  0  0
   31.1879  -20.1236   35.2030 C   0  0  0  0  0  0  0  0  0  0  0  0
   29.6454  -20.5903   35.9454 Cl  0  0  0  0  0  0  0  0  0  0  0  0
   31.7075  -18.8705   35.4373 C   0  0  0  0  0  0  0  0  0  0  0  0
   31.4744  -22.2347   34.0866 O   0  0  0  0  0  0  0  0  0  0  0  0
   31.5653  -23.4601   34.6299 C   0  0  0  0  0  0  0  0  0  0  0  0
   31.0328  -24.5473   33.9172 C   0  0  0  0  0  0  0  0  0  0  0  0
   31.1159  -25.8029   34.4489 C   0  0  0  0  0  0  0  0  0  0  0  0
   31.7183  -25.9878   35.6741 C   0  0  0  0  0  0  0  0  0  0  0  0
   32.2478  -24.9443   36.3986 C   0  0  0  0  0  0  0  0  0  0  0  0
   32.1705  -23.6830   35.8730 C   0  0  0  0  0  0  0  0  0  0  0  0
   32.8596  -25.2282   37.7240 C   0  0  0  0  0  0  0  0  0  0  0  0
   32.8334  -26.6151   37.9680 F   0  0  0  0  0  0  0  0  0  0  0  0
   34.1923  -24.8782   37.6536 F   0  0  0  0  0  0  0  0  0  0  0  0
   32.2602  -24.5284   38.7323 F   0  0  0  0  0  0  0  0  0  0  0  0
   33.6436  -12.3593   37.1656 C   0  0  0  0  0  0  0  0  0  0  0  0
   32.1790  -12.6916   36.9640 C   0  0  0  0  0  0  0  0  0  0  0  0
   30.4893  -10.5973   37.5326 C   0  0  0  0  0  0  0  0  0  0  0  0
   30.8035   -9.4050   37.7168 O   0  0  0  0  0  0  0  0  0  0  0  0
   31.3323  -11.6448   37.2484 N   0  0  0  0  0  0  0  0  0  0  0  0
   32.3744  -10.7670   37.1353 H   0  0  0  0  0  0  0  0  0  0  0  0
   29.0073  -10.8697   37.6458 C   0  0  0  0  0  0  0  0  0  0  0  0
   27.4376  -11.9177   39.2240 C   0  0  0  0  0  0  0  0  0  0  0  0
   28.4494  -10.8367   39.0052 C   0  0  0  0  0  0  0  0  0  0  0  0
   27.9539   -9.4661   39.4358 C   0  0  0  0  0  0  0  0  0  0  0  0
   29.5517  -11.1438   39.8803 O   0  0  0  0  0  0  0  0  0  0  0  0
   30.3350  -10.6685   39.4923 H   0  0  0  0  0  0  0  0  0  0  0  0
 38 39  1  0  0  0
 39 40  1  0  0  0
 39 41  1  0  0  0
 39 37  1  0  0  0
 37 33  1  0  0  0
 33 34  2  0  0  0
 33 35  1  0  0  0
 35 32  1  0  0  0
 32 31  1  0  0  0
 31  1  1  0  0  0
  1  2  2  0  0  0
  2  3  1  0  0  0
  3  4  2  0  0  0
  4  5  1  0  0  0
  5  6  2  0  0  0
  6  7  1  0  0  0
  7  8  2  0  0  0
  8 11  1  0  0  0
 11 13  1  0  0  0
 13 14  2  0  0  0
 14 15  1  0  0  0
 15 16  2  0  0  0
 16 20  1  0  0  0
 20 21  1  0  0  0
 21 22  2  0  0  0
 22 23  1  0  0  0
 23 24  2  0  0  0
 24 25  1  0  0  0
 25 27  1  0  0  0
 27 28  1  0  0  0
 27 29  1  0  0  0
 27 30  1  0  0  0
 25 26  2  0  0  0
 16 17  1  0  0  0
 17 18  1  0  0  0
 17 19  2  0  0  0
  8  9  1  0  0  0
  9 10  2  0  0  0
 10  1  1  0  0  0
  9  4  1  0  0  0
 19 13  1  0  0  0
 26 21  1  0  0  0
 41 42  1  0  0  0
 35 36  1  0  0  0
 11 12  1  0  0  0
M  END
> <minimizedAffinity>
-8.47877

> <CNNscore>
0.4349238575

> <CNNaffinity>
6.7611479759

> <CNN_VS>
2.9405846596

> <CNNaffinity_variance>
0.1017191783

$$$$
[H]OC(C([H])([H])[H])(C([H])([H])[H])C([H])([H])C(=O)N([H])C([H])([H])C([H])([H])c1c([H])c([H])c2nc([H])nc(N([H])c3c([H])c([H])c(Oc4c([H])c([H])c([H])c(C(F)(F)F)c4[H])c(Cl)c3[H])c2c1[H]


 42 45  0  0  0  0  0  0  0  0999 V2000
   35.9784  -19.9248   38.3939 C   0  0  0  0  0  0  0  0  0  0  0  0
   37.0862  -20.6654   38.0927 C   0  0  0  0  0  0  0  0  0  0  0  0
   37.7764  -20.4500   36.9402 C   0  0  0  0  0  0  0  0  0  0  0  0
   37.3790  -19.4782   36.0320 C   0  0  0  0  0  0  0  0  0  0  0  0
   38.1055  -19.3340   34.9053 N   0  0  0  0  0  0  0  0  0  0  0  0
   37.7240  -18.4138   34.0082 C   0  0  0  0  0  0  0  0  0  0  0  0
   36.6419  -17.7011   34.2964 N   0  0  0  0  0  0  0  0  0  0  0  0
   35.8781  -17.7802   35.3745 C   0  0  0  0  0  0  0  0  0  0  0  0
   36.2593  -18.7314   36.3289 C   0  0  0  0  0  0  0  0  0  0  0  0
   35.5643  -18.9325   37.4765 C   0  0  0  0  0  0  0  0  0  0  0  0
   34.7070  -17.0209   35.5489 N   0  0  0  0  0  0  0  0  0  0  0  0
   33.7451  -17.4184   35.3948 H   0  0  0  0  0  0  0  0  0  0  0  0
   34.7264  -15.6555   35.9375 C   0  0  0  0  0  0  0  0  0  0  0  0
   33.6464  -14.8287   35.9452 C   0  0  0  0  0  0  0  0  0  0  0  0
   33.7079  -13.5244   36.4442 C   0  0  0  0  0  0  0  0  0  0  0  0
   34.9179  -13.0264   36.9592 C   0  0  0  0  0  0  0  0  0  0  0  0
   36.0229  -13.8462   36.9553 C   0  0  0  0  0  0  0  0  0  0  0  0
   37.5902  -13.2815   37.5659 Cl  0  0  0  0  0  0  0  0  0  0  0  0
   35.9048  -15.1226   36.4535 C   0  0  0  0  0  0  0  0  0  0  0  0
   34.9072  -11.7689   37.4302 O   0  0  0  0  0  0  0  0  0  0  0  0
   34.2496  -10.6233   37.1850 C   0  0  0  0  0  0  0  0  0  0  0  0
   32.9599  -10.4666   37.7195 C   0  0  0  0  0  0  0  0  0  0  0  0
   32.2732   -9.3091   37.4854 C   0  0  0  0  0  0  0  0  0  0  0  0
   32.8510   -8.3125   36.7296 C   0  0  0  0  0  0  0  0  0  0  0  0
   34.1112   -8.4352   36.1900 C   0  0  0  0  0  0  0  0  0  0  0  0
   34.8073   -9.5908   36.4207 C   0  0  0  0  0  0  0  0  0  0  0  0
   34.6511   -7.3208   35.3665 C   0  0  0  0  0  0  0  0  0  0  0  0
   34.4964   -7.6264   34.0003 F   0  0  0  0  0  0  0  0  0  0  0  0
   33.8673   -6.2096   35.6000 F   0  0  0  0  0  0  0  0  0  0  0  0
   35.9501   -7.0314   35.6736 F   0  0  0  0  0  0  0  0  0  0  0  0
   35.1895  -20.1555   39.5819 C   0  0  0  0  0  0  0  0  0  0  0  0
   34.0689  -21.1702   39.4783 C   0  0  0  0  0  0  0  0  0  0  0  0
   33.1835  -21.5730   36.9056 C   0  0  0  0  0  0  0  0  0  0  0  0
   33.7645  -22.2015   35.9992 O   0  0  0  0  0  0  0  0  0  0  0  0
   33.6245  -21.3709   38.1915 N   0  0  0  0  0  0  0  0  0  0  0  0
   34.6767  -22.2116   37.9559 H   0  0  0  0  0  0  0  0  0  0  0  0
   31.8523  -20.9873   36.4955 C   0  0  0  0  0  0  0  0  0  0  0  0
   30.5525  -19.5157   35.0129 C   0  0  0  0  0  0  0  0  0  0  0  0
   31.9075  -19.8725   35.5393 C   0  0  0  0  0  0  0  0  0  0  0  0
   32.9409  -20.0531   34.4397 C   0  0  0  0  0  0  0  0  0  0  0  0
   32.3478  -18.7330   36.3027 O   0  0  0  0  0  0  0  0  0  0  0  0
   33.0405  -19.0853   36.9241 H   0  0  0  0  0  0  0  0  0  0  0  0
 38 39  1  0  0  0
 39 40  1  0  0  0
 39 41  1  0  0  0
 39 37  1  0  0  0
 37 33  1  0  0  0
 33 34  2  0  0  0
 33 35  1  0  0  0
 35 32  1  0  0  0
 32 31  1  0  0  0
 31  1  1  0  0  0
  1  2  2  0  0  0
  2  3  1  0  0  0
  3  4  2  0  0  0
  4  5  1  0  0  0
  5  6  2  0  0  0
  6  7  1  0  0  0
  7  8  2  0  0  0
  8 11  1  0  0  0
 11 13  1  0  0  0
 13 14  2  0  0  0
 14 15  1  0  0  0
 15 16  2  0  0  0
 16 20  1  0  0  0
 20 21  1  0  0  0
 21 22  2  0  0  0
 22 23  1  0  0  0
 23 24  2  0  0  0
 24 25  1  0  0  0
 25 27  1  0  0  0
 27 28  1  0  0  0
 27 29  1  0  0  0
 27 30  1  0  0  0
 25 26  2  0  0  0
 16 17  1  0  0  0
 17 18  1  0  0  0
 17 19  2  0  0  0
  8  9  1  0  0  0
  9 10  2  0  0  0
 10  1  1  0  0  0
  9  4  1  0  0  0
 19 13  1  0  0  0
 26 21  1  0  0  0
 41 42  1  0  0  0
 35 36  1  0  0  0
 11 12  1  0  0  0
M  END
> <minimizedAffinity>
-9.52508

> <CNNscore>
0.2602739036

> <CNNaffinity>
6.7778487206

> <CNN_VS>
1.7640970945

> <CNNaffinity_variance>
0.3334531188

$$$$
[H]OC(C([H])([H])[H])(C([H])([H])[H])C([H])([H])C(=O)N([H])C([H])([H])C([H])([H])c1c([H])c([H])c2nc([H])nc(N([H])c3c([H])c([H])c(Oc4c([H])c([H])c([H])c(C(F)(F)F)c4[H])c(Cl)c3[H])c2c1[H]


 42 45  0  0  0  0  0  0  0  0999 V2000
   33.8399  -13.5448   36.7963 C   0  0  0  0  0  0  0  0  0  0  0  0
   35.0356  -13.2761   37.4001 C   0  0  0  0  0  0  0  0  0  0  0  0
   36.0321  -14.2023   37.4159 C   0  0  0  0  0  0  0  0  0  0  0  0
   35.8685  -15.4484   36.8263 C   0  0  0  0  0  0  0  0  0  0  0  0
   36.8964  -16.3182   36.8960 N   0  0  0  0  0  0  0  0  0  0  0  0
   36.7481  -17.5332   36.3491 C   0  0  0  0  0  0  0  0  0  0  0  0
   35.5827  -17.7977   35.7713 N   0  0  0  0  0  0  0  0  0  0  0  0
   34.5299  -17.0031   35.6604 C   0  0  0  0  0  0  0  0  0  0  0  0
   34.6624  -15.7263   36.2199 C   0  0  0  0  0  0  0  0  0  0  0  0
   33.6618  -14.8105   36.1928 C   0  0  0  0  0  0  0  0  0  0  0  0
   33.3123  -17.4101   35.0860 N   0  0  0  0  0  0  0  0  0  0  0  0
   32.6106  -16.7273   34.7006 H   0  0  0  0  0  0  0  0  0  0  0  0
   32.9258  -18.7727   34.9872 C   0  0  0  0  0  0  0  0  0  0  0  0
   32.7433  -19.4518   33.8229 C   0  0  0  0  0  0  0  0  0  0  0  0
   32.4706  -20.8225   33.7928 C   0  0  0  0  0  0  0  0  0  0  0  0
   32.3743  -21.5455   34.9950 C   0  0  0  0  0  0  0  0  0  0  0  0
   32.5509  -20.8748   36.1833 C   0  0  0  0  0  0  0  0  0  0  0  0
   32.4209  -21.7133   37.7416 Cl  0  0  0  0  0  0  0  0  0  0  0  0
   32.8194  -19.5250   36.1541 C   0  0  0  0  0  0  0  0  0  0  0  0
   32.1184  -22.8600   34.8958 O   0  0  0  0  0  0  0  0  0  0  0  0
   31.0454  -23.6675   34.9358 C   0  0  0  0  0  0  0  0  0  0  0  0
   31.1335  -24.9254   34.3166 C   0  0  0  0  0  0  0  0  0  0  0  0
   30.0558  -25.7645   34.3467 C   0  0  0  0  0  0  0  0  0  0  0  0
   28.8987  -25.3684   34.9810 C   0  0  0  0  0  0  0  0  0  0  0  0
   28.7789  -24.1425   35.5951 C   0  0  0  0  0  0  0  0  0  0  0  0
   29.8541  -23.2959   35.5714 C   0  0  0  0  0  0  0  0  0  0  0  0
   27.4861  -23.7843   36.2368 C   0  0  0  0  0  0  0  0  0  0  0  0
   27.5475  -22.4606   36.7141 F   0  0  0  0  0  0  0  0  0  0  0  0
   26.5156  -23.7917   35.2562 F   0  0  0  0  0  0  0  0  0  0  0  0
   27.1378  -24.6601   37.2253 F   0  0  0  0  0  0  0  0  0  0  0  0
   32.7399  -12.6085   36.8009 C   0  0  0  0  0  0  0  0  0  0  0  0
   32.3270  -12.0372   38.1423 C   0  0  0  0  0  0  0  0  0  0  0  0
   29.6203  -12.1741   38.6112 C   0  0  0  0  0  0  0  0  0  0  0  0
   28.9960  -13.1084   39.1512 O   0  0  0  0  0  0  0  0  0  0  0  0
   30.9726  -12.1042   38.3762 N   0  0  0  0  0  0  0  0  0  0  0  0
   31.1482  -13.2633   39.0797 H   0  0  0  0  0  0  0  0  0  0  0  0
   28.7497  -11.0149   38.1850 C   0  0  0  0  0  0  0  0  0  0  0  0
   26.9584   -9.9011   39.4515 C   0  0  0  0  0  0  0  0  0  0  0  0
   28.4329  -10.0306   39.2296 C   0  0  0  0  0  0  0  0  0  0  0  0
   29.1235   -8.6897   39.0438 C   0  0  0  0  0  0  0  0  0  0  0  0
   28.9697  -10.5783   40.4490 O   0  0  0  0  0  0  0  0  0  0  0  0
   29.8384  -10.9896   40.1917 H   0  0  0  0  0  0  0  0  0  0  0  0
 38 39  1  0  0  0
 39 40  1  0  0  0
 39 41  1  0  0  0
 39 37  1  0  0  0
 37 33  1  0  0  0
 33 34  2  0  0  0
 33 35  1  0  0  0
 35 32  1  0  0  0
 32 31  1  0  0  0
 31  1  1  0  0  0
  1  2  2  0  0  0
  2  3  1  0  0  0
  3  4  2  0  0  0
  4  5  1  0  0  0
  5  6  2  0  0  0
  6  7  1  0  0  0
  7  8  2  0  0  0
  8 11  1  0  0  0
 11 13  1  0  0  0
 13 14  2  0  0  0
 14 15  1  0  0  0
 15 16  2  0  0  0
 16 20  1  0  0  0
 20 21  1  0  0  0
 21 22  2  0  0  0
 22 23  1  0  0  0
 23 24  2  0  0  0
 24 25  1  0  0  0
 25 27  1  0  0  0
 27 28  1  0  0  0
 27 29  1  0  0  0
 27 30  1  0  0  0
 25 26  2  0  0  0
 16 17  1  0  0  0
 17 18  1  0  0  0
 17 19  2  0  0  0
  8  9  1  0  0  0
  9 10  2  0  0  0
 10  1  1  0  0  0
  9  4  1  0  0  0
 19 13  1  0  0  0
 26 21  1  0  0  0
 41 42  1  0  0  0
 35 36  1  0  0  0
 11 12  1  0  0  0
M  END
> <minimizedAffinity>
-8.84612

> <CNNscore>
0.2303399891

> <CNNaffinity>
6.4500017166

> <CNN_VS>
1.4856933355

> <CNNaffinity_variance>
0.0675185770

$$$$
[H]OC(C([H])([H])[H])(C([H])([H])[H])C([H])([H])C(=O)N([H])C([H])([H])C([H])([H])c1c([H])c([H])c2nc([H])nc(N([H])c3c([H])c([H])c(Oc4c([H])c([H])c([H])c(C(F)(F)F)c4[H])c(Cl)c3[H])c2c1[H]


 42 45  0  0  0  0  0  0  0  0999 V2000
   35.1659  -20.3571   38.0394 C   0  0  0  0  0  0  0  0  0  0  0  0
   34.0863  -21.1917   38.1057 C   0  0  0  0  0  0  0  0  0  0  0  0
   33.0140  -21.0105   37.2881 C   0  0  0  0  0  0  0  0  0  0  0  0
   32.9771  -19.9738   36.3655 C   0  0  0  0  0  0  0  0  0  0  0  0
   31.8736  -19.8502   35.6006 N   0  0  0  0  0  0  0  0  0  0  0  0
   31.8130  -18.8427   34.7183 C   0  0  0  0  0  0  0  0  0  0  0  0
   32.8579  -18.0259   34.6610 N   0  0  0  0  0  0  0  0  0  0  0  0
   33.9729  -18.0790   35.3724 C   0  0  0  0  0  0  0  0  0  0  0  0
   34.0617  -19.1262   36.2978 C   0  0  0  0  0  0  0  0  0  0  0  0
   35.1394  -19.2980   37.1039 C   0  0  0  0  0  0  0  0  0  0  0  0
   34.9942  -17.1164   35.2805 N   0  0  0  0  0  0  0  0  0  0  0  0
   35.9230  -17.3161   34.8283 H   0  0  0  0  0  0  0  0  0  0  0  0
   34.8600  -15.8009   35.7975 C   0  0  0  0  0  0  0  0  0  0  0  0
   33.6881  -15.1193   35.9078 C   0  0  0  0  0  0  0  0  0  0  0  0
   33.6069  -13.8691   36.5280 C   0  0  0  0  0  0  0  0  0  0  0  0
   34.7638  -13.2740   37.0616 C   0  0  0  0  0  0  0  0  0  0  0  0
   35.9597  -13.9459   36.9552 C   0  0  0  0  0  0  0  0  0  0  0  0
   37.4660  -13.2492   37.5826 Cl  0  0  0  0  0  0  0  0  0  0  0  0
   35.9813  -15.1754   36.3362 C   0  0  0  0  0  0  0  0  0  0  0  0
   34.6156  -12.0764   37.6509 O   0  0  0  0  0  0  0  0  0  0  0  0
   34.0402  -10.8958   37.3678 C   0  0  0  0  0  0  0  0  0  0  0  0
   32.7364  -10.6600   37.8344 C   0  0  0  0  0  0  0  0  0  0  0  0
   32.1321   -9.4657   37.5607 C   0  0  0  0  0  0  0  0  0  0  0  0
   32.8058   -8.5100   36.8321 C   0  0  0  0  0  0  0  0  0  0  0  0
   34.0825   -8.7102   36.3587 C   0  0  0  0  0  0  0  0  0  0  0  0
   34.6964   -9.9031   36.6294 C   0  0  0  0  0  0  0  0  0  0  0  0
   34.7288   -7.6351   35.5599 C   0  0  0  0  0  0  0  0  0  0  0  0
   34.1328   -6.3965   35.8671 F   0  0  0  0  0  0  0  0  0  0  0  0
   36.0420   -7.5392   35.9718 F   0  0  0  0  0  0  0  0  0  0  0  0
   34.6924   -7.8924   34.2190 F   0  0  0  0  0  0  0  0  0  0  0  0
   36.3015  -20.4849   38.9230 C   0  0  0  0  0  0  0  0  0  0  0  0
   37.4505  -21.3507   38.4473 C   0  0  0  0  0  0  0  0  0  0  0  0
   39.2776  -19.9993   36.8980 C   0  0  0  0  0  0  0  0  0  0  0  0
   39.9646  -19.0137   37.2312 O   0  0  0  0  0  0  0  0  0  0  0  0
   38.3644  -20.6756   37.6709 N   0  0  0  0  0  0  0  0  0  0  0  0
   38.7362  -19.9276   38.7533 H   0  0  0  0  0  0  0  0  0  0  0  0
   39.5102  -20.4625   35.4786 C   0  0  0  0  0  0  0  0  0  0  0  0
   37.4385  -19.7027   34.3904 C   0  0  0  0  0  0  0  0  0  0  0  0
   38.9325  -19.6176   34.4237 C   0  0  0  0  0  0  0  0  0  0  0  0
   39.5673  -19.8161   33.0573 C   0  0  0  0  0  0  0  0  0  0  0  0
   39.2431  -18.2631   34.8032 O   0  0  0  0  0  0  0  0  0  0  0  0
   40.1683  -18.2984   35.1677 H   0  0  0  0  0  0  0  0  0  0  0  0
 38 39  1  0  0  0
 39 40  1  0  0  0
 39 41  1  0  0  0
 39 37  1  0  0  0
 37 33  1  0  0  0
 33 34  2  0  0  0
 33 35  1  0  0  0
 35 32  1  0  0  0
 32 31  1  0  0  0
 31  1  1  0  0  0
  1  2  2  0  0  0
  2  3  1  0  0  0
  3  4  2  0  0  0
  4  5  1  0  0  0
  5  6  2  0  0  0
  6  7  1  0  0  0
  7  8  2  0  0  0
  8 11  1  0  0  0
 11 13  1  0  0  0
 13 14  2  0  0  0
 14 15  1  0  0  0
 15 16  2  0  0  0
 16 20  1  0  0  0
 20 21  1  0  0  0
 21 22  2  0  0  0
 22 23  1  0  0  0
 23 24  2  0  0  0
 24 25  1  0  0  0
 25 27  1  0  0  0
 27 28  1  0  0  0
 27 29  1  0  0  0
 27 30  1  0  0  0
 25 26  2  0  0  0
 16 17  1  0  0  0
 17 18  1  0  0  0
 17 19  2  0  0  0
  8  9  1  0  0  0
  9 10  2  0  0  0
 10  1  1  0  0  0
  9  4  1  0  0  0
 19 13  1  0  0  0
 26 21  1  0  0  0
 41 42  1  0  0  0
 35 36  1  0  0  0
 11 12  1  0  0  0
M  END
> <minimizedAffinity>
-9.06729

> <CNNscore>
0.1867690980

> <CNNaffinity>
6.4745979309

> <CNN_VS>
1.2092548609

> <CNNaffinity_variance>
0.6867271066

$$$$
[H]OC(C([H])([H])[H])(C([H])([H])[H])C([H])([H])C(=O)N([H])C([H])([H])C([H])([H])c1c([H])c([H])c2nc([H])nc(N([H])c3c([H])c([H])c(Oc4c([H])c([H])c([H])c(C(F)(F)F)c4[H])c(Cl)c3[H])c2c1[H]


 42 45  0  0  0  0  0  0  0  0999 V2000
   33.9760  -13.9225   36.7970 C   0  0  0  0  0  0  0  0  0  0  0  0
   35.0916  -13.7038   37.5547 C   0  0  0  0  0  0  0  0  0  0  0  0
   36.0737  -14.6417   37.6361 C   0  0  0  0  0  0  0  0  0  0  0  0
   35.9756  -15.8499   36.9595 C   0  0  0  0  0  0  0  0  0  0  0  0
   36.9828  -16.7350   37.1013 N   0  0  0  0  0  0  0  0  0  0  0  0
   36.8950  -17.9148   36.4708 C   0  0  0  0  0  0  0  0  0  0  0  0
   35.8064  -18.1312   35.7427 N   0  0  0  0  0  0  0  0  0  0  0  0
   34.7790  -17.3185   35.5526 C   0  0  0  0  0  0  0  0  0  0  0  0
   34.8501  -16.0776   36.1974 C   0  0  0  0  0  0  0  0  0  0  0  0
   33.8651  -15.1493   36.1037 C   0  0  0  0  0  0  0  0  0  0  0  0
   33.6374  -17.6767   34.8133 N   0  0  0  0  0  0  0  0  0  0  0  0
   33.3849  -17.2170   33.9012 H   0  0  0  0  0  0  0  0  0  0  0  0
   32.7280  -18.6800   35.2404 C   0  0  0  0  0  0  0  0  0  0  0  0
   31.4719  -18.8576   34.7497 C   0  0  0  0  0  0  0  0  0  0  0  0
   30.6655  -19.9331   35.1334 C   0  0  0  0  0  0  0  0  0  0  0  0
   31.1467  -20.8757   36.0593 C   0  0  0  0  0  0  0  0  0  0  0  0
   32.4132  -20.7101   36.5708 C   0  0  0  0  0  0  0  0  0  0  0  0
   33.0808  -21.8440   37.7610 Cl  0  0  0  0  0  0  0  0  0  0  0  0
   33.1646  -19.6337   36.1562 C   0  0  0  0  0  0  0  0  0  0  0  0
   30.3253  -21.8888   36.3791 O   0  0  0  0  0  0  0  0  0  0  0  0
   29.9795  -23.0837   35.8716 C   0  0  0  0  0  0  0  0  0  0  0  0
   28.9433  -23.7988   36.4946 C   0  0  0  0  0  0  0  0  0  0  0  0
   28.5729  -25.0149   35.9945 C   0  0  0  0  0  0  0  0  0  0  0  0
   29.2184  -25.5248   34.8892 C   0  0  0  0  0  0  0  0  0  0  0  0
   30.2384  -24.8510   34.2570 C   0  0  0  0  0  0  0  0  0  0  0  0
   30.6151  -23.6311   34.7501 C   0  0  0  0  0  0  0  0  0  0  0  0
   30.8978  -25.4837   33.0838 C   0  0  0  0  0  0  0  0  0  0  0  0
   31.7104  -26.5491   33.5176 F   0  0  0  0  0  0  0  0  0  0  0  0
   29.9108  -26.0498   32.3036 F   0  0  0  0  0  0  0  0  0  0  0  0
   31.6040  -24.5834   32.3380 F   0  0  0  0  0  0  0  0  0  0  0  0
   32.8887  -12.9743   36.7240 C   0  0  0  0  0  0  0  0  0  0  0  0
   32.5307  -12.2371   37.9984 C   0  0  0  0  0  0  0  0  0  0  0  0
   29.8371  -12.2438   38.5546 C   0  0  0  0  0  0  0  0  0  0  0  0
   29.1945  -13.1275   39.1549 O   0  0  0  0  0  0  0  0  0  0  0  0
   31.1828  -12.2389   38.2760 N   0  0  0  0  0  0  0  0  0  0  0  0
   31.3356  -13.3722   39.0255 H   0  0  0  0  0  0  0  0  0  0  0  0
   28.9991  -11.0702   38.1031 C   0  0  0  0  0  0  0  0  0  0  0  0
   27.0387  -10.1943   39.3041 C   0  0  0  0  0  0  0  0  0  0  0  0
   28.5288  -10.1696   39.1651 C   0  0  0  0  0  0  0  0  0  0  0  0
   29.0914   -8.7608   39.0736 C   0  0  0  0  0  0  0  0  0  0  0  0
   29.0495  -10.7169   40.3916 O   0  0  0  0  0  0  0  0  0  0  0  0
   29.9677  -11.0297   40.1702 H   0  0  0  0  0  0  0  0  0  0  0  0
 38 39  1  0  0  0
 39 40  1  0  0  0
 39 41  1  0  0  0
 39 37  1  0  0  0
 37 33  1  0  0  0
 33 34  2  0  0  0
 33 35  1  0  0  0
 35 32  1  0  0  0
 32 31  1  0  0  0
 31  1  1  0  0  0
  1  2  2  0  0  0
  2  3  1  0  0  0
  3  4  2  0  0  0
  4  5  1  0  0  0
  5  6  2  0  0  0
  6  7  1  0  0  0
  7  8  2  0  0  0
  8 11  1  0  0  0
 11 13  1  0  0  0
 13 14  2  0  0  0
 14 15  1  0  0  0
 15 16  2  0  0  0
 16 20  1  0  0  0
 20 21  1  0  0  0
 21 22  2  0  0  0
 22 23  1  0  0  0
 23 24  2  0  0  0
 24 25  1  0  0  0
 25 27  1  0  0  0
 27 28  1  0  0  0
 27 29  1  0  0  0
 27 30  1  0  0  0
 25 26  2  0  0  0
 16 17  1  0  0  0
 17 18  1  0  0  0
 17 19  2  0  0  0
  8  9  1  0  0  0
  9 10  2  0  0  0
 10  1  1  0  0  0
  9  4  1  0  0  0
 19 13  1  0  0  0
 26 21  1  0  0  0
 41 42  1  0  0  0
 35 36  1  0  0  0
 11 12  1  0  0  0
M  END
> <minimizedAffinity>
-8.89635

> <CNNscore>
0.1826208681

> <CNNaffinity>
6.3561658859

> <CNN_VS>
1.1607685089

> <CNNaffinity_variance>
0.2003077716

$$$$
[H]OC(C([H])([H])[H])(C([H])([H])[H])C([H])([H])C(=O)N([H])C([H])([H])C([H])([H])c1c([H])c([H])c2nc([H])nc(N([H])c3c([H])c([H])c(Oc4c([H])c([H])c([H])c(C(F)(F)F)c4[H])c(Cl)c3[H])c2c1[H]


 42 45  0  0  0  0  0  0  0  0999 V2000
   33.6464  -18.9896   34.3521 C   0  0  0  0  0  0  0  0  0  0  0  0
   32.8693  -17.9108   34.6665 C   0  0  0  0  0  0  0  0  0  0  0  0
   33.3825  -16.8621   35.3650 C   0  0  0  0  0  0  0  0  0  0  0  0
   34.7057  -16.8530   35.7849 C   0  0  0  0  0  0  0  0  0  0  0  0
   35.1371  -15.7848   36.4853 N   0  0  0  0  0  0  0  0  0  0  0  0
   36.4067  -15.7687   36.9156 C   0  0  0  0  0  0  0  0  0  0  0  0
   37.1588  -16.8214   36.6187 N   0  0  0  0  0  0  0  0  0  0  0  0
   36.8132  -17.9032   35.9387 C   0  0  0  0  0  0  0  0  0  0  0  0
   35.4927  -17.9410   35.4743 C   0  0  0  0  0  0  0  0  0  0  0  0
   34.9952  -18.9915   34.7745 C   0  0  0  0  0  0  0  0  0  0  0  0
   37.6736  -18.9978   35.7394 N   0  0  0  0  0  0  0  0  0  0  0  0
   37.6872  -19.5534   34.8460 H   0  0  0  0  0  0  0  0  0  0  0  0
   38.5869  -19.4483   36.7287 C   0  0  0  0  0  0  0  0  0  0  0  0
   38.3080  -20.3701   37.6893 C   0  0  0  0  0  0  0  0  0  0  0  0
   39.2837  -20.8538   38.5658 C   0  0  0  0  0  0  0  0  0  0  0  0
   40.6059  -20.3842   38.4724 C   0  0  0  0  0  0  0  0  0  0  0  0
   40.9063  -19.4477   37.5103 C   0  0  0  0  0  0  0  0  0  0  0  0
   42.5460  -18.7900   37.3462 Cl  0  0  0  0  0  0  0  0  0  0  0  0
   39.9066  -19.0079   36.6722 C   0  0  0  0  0  0  0  0  0  0  0  0
   41.4957  -20.8951   39.3387 O   0  0  0  0  0  0  0  0  0  0  0  0
   41.9527  -20.6172   40.5711 C   0  0  0  0  0  0  0  0  0  0  0  0
   42.0034  -19.2732   40.9767 C   0  0  0  0  0  0  0  0  0  0  0  0
   42.4621  -18.9668   42.2264 C   0  0  0  0  0  0  0  0  0  0  0  0
   42.8691  -19.9759   43.0715 C   0  0  0  0  0  0  0  0  0  0  0  0
   42.8343  -21.3019   42.7044 C   0  0  0  0  0  0  0  0  0  0  0  0
   42.3746  -21.6184   41.4547 C   0  0  0  0  0  0  0  0  0  0  0  0
   43.3145  -22.3267   43.6692 C   0  0  0  0  0  0  0  0  0  0  0  0
   43.5262  -21.7280   44.9263 F   0  0  0  0  0  0  0  0  0  0  0  0
   42.2977  -23.2418   43.8487 F   0  0  0  0  0  0  0  0  0  0  0  0
   44.4325  -22.9733   43.2249 F   0  0  0  0  0  0  0  0  0  0  0  0
   33.1273  -20.1440   33.6561 C   0  0  0  0  0  0  0  0  0  0  0  0
   32.6334  -21.2968   34.5066 C   0  0  0  0  0  0  0  0  0  0  0  0
   30.3040  -20.7434   35.8603 C   0  0  0  0  0  0  0  0  0  0  0  0
   29.5662  -19.7492   35.7140 O   0  0  0  0  0  0  0  0  0  0  0  0
   31.4681  -21.0214   35.1848 N   0  0  0  0  0  0  0  0  0  0  0  0
   31.2453  -19.9452   34.3714 H   0  0  0  0  0  0  0  0  0  0  0  0
   29.8229  -21.7205   36.9079 C   0  0  0  0  0  0  0  0  0  0  0  0
   27.5474  -22.5800   37.2770 C   0  0  0  0  0  0  0  0  0  0  0  0
   28.8030  -22.6834   36.4689 C   0  0  0  0  0  0  0  0  0  0  0  0
   29.3128  -24.1099   36.3473 C   0  0  0  0  0  0  0  0  0  0  0  0
   28.4468  -22.2830   35.1318 O   0  0  0  0  0  0  0  0  0  0  0  0
   29.3020  -22.0083   34.7036 H   0  0  0  0  0  0  0  0  0  0  0  0
 38 39  1  0  0  0
 39 40  1  0  0  0
 39 41  1  0  0  0
 39 37  1  0  0  0
 37 33  1  0  0  0
 33 34  2  0  0  0
 33 35  1  0  0  0
 35 32  1  0  0  0
 32 31  1  0  0  0
 31  1  1  0  0  0
  1  2  2  0  0  0
  2  3  1  0  0  0
  3  4  2  0  0  0
  4  5  1  0  0  0
  5  6  2  0  0  0
  6  7  1  0  0  0
  7  8  2  0  0  0
  8 11  1  0  0  0
 11 13  1  0  0  0
 13 14  2  0  0  0
 14 15  1  0  0  0
 15 16  2  0  0  0
 16 20  1  0  0  0
 20 21  1  0  0  0
 21 22  2  0  0  0
 22 23  1  0  0  0
 23 24  2  0  0  0
 24 25  1  0  0  0
 25 27  1  0  0  0
 27 28  1  0  0  0
 27 29  1  0  0  0
 27 30  1  0  0  0
 25 26  2  0  0  0
 16 17  1  0  0  0
 17 18  1  0  0  0
 17 19  2  0  0  0
  8  9  1  0  0  0
  9 10  2  0  0  0
 10  1  1  0  0  0
  9  4  1  0  0  0
 19 13  1  0  0  0
 26 21  1  0  0  0
 41 42  1  0  0  0
 35 36  1  0  0  0
 11 12  1  0  0  0
M  END
> <minimizedAffinity>
-6.34502

> <CNNscore>
0.1747947186

> <CNNaffinity>
5.6839246750

> <CNN_VS>
0.9935200214

> <CNNaffinity_variance>
0.1649089754

$$$$
[H]OC(C([H])([H])[H])(C([H])([H])[H])C([H])([H])C(=O)N([H])C([H])([H])C([H])([H])c1c([H])c([H])c2nc([H])nc(N([H])c3c([H])c([H])c(Oc4c([H])c([H])c([H])c(C(F)(F)F)c4[H])c(Cl)c3[H])c2c1[H]


 42 45  0  0  0  0  0  0  0  0999 V2000
   32.2139  -21.0174   34.7752 C   0  0  0  0  0  0  0  0  0  0  0  0
   31.3338  -20.1848   35.4067 C   0  0  0  0  0  0  0  0  0  0  0  0
   31.6604  -18.8888   35.6609 C   0  0  0  0  0  0  0  0  0  0  0  0
   32.8948  -18.3704   35.2939 C   0  0  0  0  0  0  0  0  0  0  0  0
   33.1507  -17.0808   35.5932 N   0  0  0  0  0  0  0  0  0  0  0  0
   34.3454  -16.5696   35.2636 C   0  0  0  0  0  0  0  0  0  0  0  0
   35.2041  -17.3815   34.6591 N   0  0  0  0  0  0  0  0  0  0  0  0
   35.0306  -18.6520   34.3310 C   0  0  0  0  0  0  0  0  0  0  0  0
   33.7881  -19.2074   34.6607 C   0  0  0  0  0  0  0  0  0  0  0  0
   33.4739  -20.5005   34.3969 C   0  0  0  0  0  0  0  0  0  0  0  0
   36.0377  -19.4446   33.7515 N   0  0  0  0  0  0  0  0  0  0  0  0
   35.9330  -19.8925   32.8052 H   0  0  0  0  0  0  0  0  0  0  0  0
   37.2730  -19.7126   34.3981 C   0  0  0  0  0  0  0  0  0  0  0  0
   38.4988  -19.6065   33.8184 C   0  0  0  0  0  0  0  0  0  0  0  0
   39.6837  -19.7772   34.5404 C   0  0  0  0  0  0  0  0  0  0  0  0
   39.6319  -20.0719   35.9143 C   0  0  0  0  0  0  0  0  0  0  0  0
   38.4008  -20.1883   36.5176 C   0  0  0  0  0  0  0  0  0  0  0  0
   38.2540  -20.5818   38.2415 Cl  0  0  0  0  0  0  0  0  0  0  0  0
   37.2664  -20.0081   35.7588 C   0  0  0  0  0  0  0  0  0  0  0  0
   40.8058  -20.2156   36.5505 O   0  0  0  0  0  0  0  0  0  0  0  0
   41.6694  -19.4396   37.2264 C   0  0  0  0  0  0  0  0  0  0  0  0
   41.9328  -19.7486   38.5712 C   0  0  0  0  0  0  0  0  0  0  0  0
   42.8095  -18.9749   39.2777 C   0  0  0  0  0  0  0  0  0  0  0  0
   43.4224  -17.9036   38.6654 C   0  0  0  0  0  0  0  0  0  0  0  0
   43.1847  -17.5726   37.3508 C   0  0  0  0  0  0  0  0  0  0  0  0
   42.3092  -18.3432   36.6347 C   0  0  0  0  0  0  0  0  0  0  0  0
   43.8705  -16.3858   36.7740 C   0  0  0  0  0  0  0  0  0  0  0  0
   45.2142  -16.7055   36.4984 F   0  0  0  0  0  0  0  0  0  0  0  0
   43.2848  -16.1152   35.5546 F   0  0  0  0  0  0  0  0  0  0  0  0
   43.7695  -15.2868   37.5788 F   0  0  0  0  0  0  0  0  0  0  0  0
   31.9254  -22.4118   34.5315 C   0  0  0  0  0  0  0  0  0  0  0  0
   30.5410  -22.9038   34.9021 C   0  0  0  0  0  0  0  0  0  0  0  0
   30.0778  -22.9406   37.6130 C   0  0  0  0  0  0  0  0  0  0  0  0
   30.8745  -22.6217   38.5173 O   0  0  0  0  0  0  0  0  0  0  0  0
   30.3077  -22.9227   36.2582 N   0  0  0  0  0  0  0  0  0  0  0  0
   31.5178  -22.3254   36.4779 H   0  0  0  0  0  0  0  0  0  0  0  0
   28.7243  -23.3900   38.1126 C   0  0  0  0  0  0  0  0  0  0  0  0
   27.9701  -22.4417   40.2539 C   0  0  0  0  0  0  0  0  0  0  0  0
   27.9031  -22.3578   38.7610 C   0  0  0  0  0  0  0  0  0  0  0  0
   26.4790  -22.2821   38.2357 C   0  0  0  0  0  0  0  0  0  0  0  0
   28.5146  -21.1023   38.4077 O   0  0  0  0  0  0  0  0  0  0  0  0
   28.7921  -21.2038   37.4576 H   0  0  0  0  0  0  0  0  0  0  0  0
 38 39  1  0  0  0
 39 40  1  0  0  0
 39 41  1  0  0  0
 39 37  1  0  0  0
 37 33  1  0  0  0
 33 34  2  0  0  0
 33 35  1  0  0  0
 35 32  1  0  0  0
 32 31  1  0  0  0
 31  1  1  0  0  0
  1  2  2  0  0  0
  2  3  1  0  0  0
  3  4  2  0  0  0
  4  5  1  0  0  0
  5  6  2  0  0  0
  6  7  1  0  0  0
  7  8  2  0  0  0
  8 11  1  0  0  0
 11 13  1  0  0  0
 13 14  2  0  0  0
 14 15  1  0  0  0
 15 16  2  0  0  0
 16 20  1  0  0  0
 20 21  1  0  0  0
 21 22  2  0  0  0
 22 23  1  0  0  0
 23 24  2  0  0  0
 24 25  1  0  0  0
 25 27  1  0  0  0
 27 28  1  0  0  0
 27 29  1  0  0  0
 27 30  1  0  0  0
 25 26  2  0  0  0
 16 17  1  0  0  0
 17 18  1  0  0  0
 17 19  2  0  0  0
  8  9  1  0  0  0
  9 10  2  0  0  0
 10  1  1  0  0  0
  9  4  1  0  0  0
 19 13  1  0  0  0
 26 21  1  0  0  0
 41 42  1  0  0  0
 35 36  1  0  0  0
 11 12  1  0  0  0
M  END
> <minimizedAffinity>
-6.41944

> <CNNscore>
0.1595202982

> <CNNaffinity>
5.7912969589

> <CNN_VS>
0.9238294363

> <CNNaffinity_variance>
0.1831617802

$$$$
[H]OC(C([H])([H])[H])(C([H])([H])[H])C([H])([H])C(=O)N([H])C([H])([H])C([H])([H])c1c([H])c([H])c2nc([H])nc(N([H])c3c([H])c([H])c(Oc4c([H])c([H])c([H])c(C(F)(F)F)c4[H])c(Cl)c3[H])c2c1[H]


 42 45  0  0  0  0  0  0  0  0999 V2000
   32.4038  -20.3771   34.5476 C   0  0  0  0  0  0  0  0  0  0  0  0
   31.5880  -19.4534   35.1373 C   0  0  0  0  0  0  0  0  0  0  0  0
   32.0659  -18.2325   35.5005 C   0  0  0  0  0  0  0  0  0  0  0  0
   33.3936  -17.8854   35.2903 C   0  0  0  0  0  0  0  0  0  0  0  0
   33.7962  -16.6626   35.6909 N   0  0  0  0  0  0  0  0  0  0  0  0
   35.0797  -16.3186   35.5135 C   0  0  0  0  0  0  0  0  0  0  0  0
   35.8745  -17.2199   34.9496 N   0  0  0  0  0  0  0  0  0  0  0  0
   35.5587  -18.4349   34.5298 C   0  0  0  0  0  0  0  0  0  0  0  0
   34.2219  -18.8154   34.7000 C   0  0  0  0  0  0  0  0  0  0  0  0
   33.7576  -20.0349   34.3286 C   0  0  0  0  0  0  0  0  0  0  0  0
   36.4996  -19.3401   34.0068 N   0  0  0  0  0  0  0  0  0  0  0  0
   36.3436  -19.8643   33.1080 H   0  0  0  0  0  0  0  0  0  0  0  0
   37.7313  -19.6277   34.6519 C   0  0  0  0  0  0  0  0  0  0  0  0
   38.9392  -19.1129   34.2971 C   0  0  0  0  0  0  0  0  0  0  0  0
   40.0990  -19.3484   35.0413 C   0  0  0  0  0  0  0  0  0  0  0  0
   40.0403  -20.1439   36.1993 C   0  0  0  0  0  0  0  0  0  0  0  0
   38.8280  -20.6777   36.5715 C   0  0  0  0  0  0  0  0  0  0  0  0
   38.6787  -21.7108   38.0063 Cl  0  0  0  0  0  0  0  0  0  0  0  0
   37.7176  -20.4115   35.8027 C   0  0  0  0  0  0  0  0  0  0  0  0
   41.1881  -20.3242   36.8726 O   0  0  0  0  0  0  0  0  0  0  0  0
   41.8266  -19.7631   37.9131 C   0  0  0  0  0  0  0  0  0  0  0  0
   42.7764  -18.7617   37.6518 C   0  0  0  0  0  0  0  0  0  0  0  0
   43.4363  -18.1751   38.6942 C   0  0  0  0  0  0  0  0  0  0  0  0
   43.1643  -18.5717   39.9853 C   0  0  0  0  0  0  0  0  0  0  0  0
   42.2416  -19.5509   40.2752 C   0  0  0  0  0  0  0  0  0  0  0  0
   41.5744  -20.1430   39.2372 C   0  0  0  0  0  0  0  0  0  0  0  0
   42.0254  -19.9358   41.6953 C   0  0  0  0  0  0  0  0  0  0  0  0
   43.2681  -20.0395   42.3500 F   0  0  0  0  0  0  0  0  0  0  0  0
   41.3543  -18.9003   42.3124 F   0  0  0  0  0  0  0  0  0  0  0  0
   41.2956  -21.0841   41.8159 F   0  0  0  0  0  0  0  0  0  0  0  0
   31.9483  -21.7012   34.1927 C   0  0  0  0  0  0  0  0  0  0  0  0
   32.3119  -22.8305   35.1353 C   0  0  0  0  0  0  0  0  0  0  0  0
   30.9344  -22.7662   37.5150 C   0  0  0  0  0  0  0  0  0  0  0  0
   31.3496  -22.3494   38.6142 O   0  0  0  0  0  0  0  0  0  0  0  0
   31.6214  -22.7990   36.3252 N   0  0  0  0  0  0  0  0  0  0  0  0
   32.6491  -22.1099   36.9070 H   0  0  0  0  0  0  0  0  0  0  0  0
   29.5146  -23.2825   37.5467 C   0  0  0  0  0  0  0  0  0  0  0  0
   27.0898  -22.8689   37.5023 C   0  0  0  0  0  0  0  0  0  0  0  0
   28.4581  -22.2624   37.4887 C   0  0  0  0  0  0  0  0  0  0  0  0
   28.6433  -21.2446   36.3755 C   0  0  0  0  0  0  0  0  0  0  0  0
   28.5735  -21.5194   38.7174 O   0  0  0  0  0  0  0  0  0  0  0  0
   29.5512  -21.4276   38.8776 H   0  0  0  0  0  0  0  0  0  0  0  0
 38 39  1  0  0  0
 39 40  1  0  0  0
 39 41  1  0  0  0
 39 37  1  0  0  0
 37 33  1  0  0  0
 33 34  2  0  0  0
 33 35  1  0  0  0
 35 32  1  0  0  0
 32 31  1  0  0  0
 31  1  1  0  0  0
  1  2  2  0  0  0
  2  3  1  0  0  0
  3  4  2  0  0  0
  4  5  1  0  0  0
  5  6  2  0  0  0
  6  7  1  0  0  0
  7  8  2  0  0  0
  8 11  1  0  0  0
 11 13  1  0  0  0
 13 14  2  0  0  0
 14 15  1  0  0  0
 15 16  2  0  0  0
 16 20  1  0  0  0
 20 21  1  0  0  0
 21 22  2  0  0  0
 22 23  1  0  0  0
 23 24  2  0  0  0
 24 25  1  0  0  0
 25 27  1  0  0  0
 27 28  1  0  0  0
 27 29  1  0  0  0
 27 30  1  0  0  0
 25 26  2  0  0  0
 16 17  1  0  0  0
 17 18  1  0  0  0
 17 19  2  0  0  0
  8  9  1  0  0  0
  9 10  2  0  0  0
 10  1  1  0  0  0
  9  4  1  0  0  0
 19 13  1  0  0  0
 26 21  1  0  0  0
 41 42  1  0  0  0
 35 36  1  0  0  0
 11 12  1  0  0  0
M  END
> <minimizedAffinity>
-6.52776

> <CNNscore>
0.1543338001

> <CNNaffinity>
5.9517874718

> <CNN_VS>
0.9185619950

> <CNNaffinity_variance>
0.1492431313

$$$$
[H]OC(=O)c1c([H])c([H])c(C([H])([H])N([H])C(=O)c2c([H])c([H])c(C(C([H])([H])[H])(C([H])([H])[H])C([H])([H])[H])c([H])c2[H])c([H])c1F


 26 27  0  0  0  0  0  0  0  0999 V2000
   35.9594  -18.7931   35.6227 C   0  0  0  0  0  0  0  0  0  0  0  0
   35.5263  -17.6121   35.7677 O   0  0  0  0  0  0  0  0  0  0  0  0
   35.3472  -19.6321   34.6837 N   0  0  0  0  0  0  0  0  0  0  0  0
   35.7434  -20.6162   34.5764 H   0  0  0  0  0  0  0  0  0  0  0  0
   39.2671  -20.2481   37.8949 C   0  0  0  0  0  0  0  0  0  0  0  0
   37.9699  -20.6271   38.1838 C   0  0  0  0  0  0  0  0  0  0  0  0
   36.8933  -20.1568   37.4622 C   0  0  0  0  0  0  0  0  0  0  0  0
   37.0785  -19.2796   36.4155 C   0  0  0  0  0  0  0  0  0  0  0  0
   38.3464  -18.8788   36.0984 C   0  0  0  0  0  0  0  0  0  0  0  0
   39.4154  -19.3742   36.8477 C   0  0  0  0  0  0  0  0  0  0  0  0
   40.8852  -22.0551   38.0316 C   0  0  0  0  0  0  0  0  0  0  0  0
   40.4412  -20.7556   38.6730 C   0  0  0  0  0  0  0  0  0  0  0  0
   40.0094  -21.0775   40.0844 C   0  0  0  0  0  0  0  0  0  0  0  0
   41.5662  -19.7414   38.7140 C   0  0  0  0  0  0  0  0  0  0  0  0
   34.2477  -19.3175   33.8210 C   0  0  0  0  0  0  0  0  0  0  0  0
   32.9390  -19.7327   34.3807 C   0  0  0  0  0  0  0  0  0  0  0  0
   32.8260  -21.0505   34.8698 C   0  0  0  0  0  0  0  0  0  0  0  0
   31.6574  -21.4967   35.4296 C   0  0  0  0  0  0  0  0  0  0  0  0
   30.5250  -20.6936   35.5502 C   0  0  0  0  0  0  0  0  0  0  0  0
   30.6260  -19.4028   35.0725 C   0  0  0  0  0  0  0  0  0  0  0  0
   29.5538  -18.5763   35.1706 F   0  0  0  0  0  0  0  0  0  0  0  0
   31.8227  -18.9535   34.5018 C   0  0  0  0  0  0  0  0  0  0  0  0
   29.3240  -21.2214   36.1672 C   0  0  0  0  0  0  0  0  0  0  0  0
   28.5520  -21.9165   35.4497 O   0  0  0  0  0  0  0  0  0  0  0  0
   29.0328  -20.9799   37.4816 O   0  0  0  0  0  0  0  0  0  0  0  0
   29.3549  -21.5478   38.2729 H   0  0  0  0  0  0  0  0  0  0  0  0
 11 12  1  0  0  0
 12 13  1  0  0  0
 12 14  1  0  0  0
 12  5  1  0  0  0
  5  6  2  0  0  0
  6  7  1  0  0  0
  7  8  2  0  0  0
  8  1  1  0  0  0
  1  2  2  0  0  0
  1  3  1  0  0  0
  3 15  1  0  0  0
 15 16  1  0  0  0
 16 17  2  0  0  0
 17 18  1  0  0  0
 18 19  2  0  0  0
 19 23  1  0  0  0
 23 24  2  0  0  0
 23 25  1  0  0  0
 19 20  1  0  0  0
 20 21  1  0  0  0
 20 22  2  0  0  0
  8  9  1  0  0  0
  9 10  2  0  0  0
 10  5  1  0  0  0
 22 16  1  0  0  0
  3  4  1  0  0  0
 25 26  1  0  0  0
M  END
> <minimizedAffinity>
-5.94865

> <CNNscore>
0.4141779840

> <CNNaffinity>
4.1134634018

> <CNN_VS>
1.7037060261

> <CNNaffinity_variance>
0.2525611818

$$$$
[H]OC(=O)c1c([H])c([H])c(C([H])([H])N([H])C(=O)c2c([H])c([H])c(C(C([H])([H])[H])(C([H])([H])[H])C([H])([H])[H])c([H])c2[H])c([H])c1F


 26 27  0  0  0  0  0  0  0  0999 V2000
   36.3235  -16.1136   36.1936 C   0  0  0  0  0  0  0  0  0  0  0  0
   35.7165  -16.6984   37.1385 O   0  0  0  0  0  0  0  0  0  0  0  0
   36.5366  -16.8014   34.9928 N   0  0  0  0  0  0  0  0  0  0  0  0
   37.0392  -16.2771   34.2122 H   0  0  0  0  0  0  0  0  0  0  0  0
   37.7527  -12.1110   36.5901 C   0  0  0  0  0  0  0  0  0  0  0  0
   37.7692  -12.9926   37.6543 C   0  0  0  0  0  0  0  0  0  0  0  0
   37.3023  -14.2847   37.5400 C   0  0  0  0  0  0  0  0  0  0  0  0
   36.7951  -14.7452   36.3441 C   0  0  0  0  0  0  0  0  0  0  0  0
   36.7598  -13.9038   35.2673 C   0  0  0  0  0  0  0  0  0  0  0  0
   37.2413  -12.6016   35.4153 C   0  0  0  0  0  0  0  0  0  0  0  0
   39.7018  -10.7034   36.2414 C   0  0  0  0  0  0  0  0  0  0  0  0
   38.2592  -10.7068   36.7061 C   0  0  0  0  0  0  0  0  0  0  0  0
   38.2553  -10.2881   38.1575 C   0  0  0  0  0  0  0  0  0  0  0  0
   37.4131   -9.7386   35.9047 C   0  0  0  0  0  0  0  0  0  0  0  0
   36.1372  -18.1394   34.6729 C   0  0  0  0  0  0  0  0  0  0  0  0
   37.2857  -19.0267   34.3694 C   0  0  0  0  0  0  0  0  0  0  0  0
   37.8480  -18.9491   33.0786 C   0  0  0  0  0  0  0  0  0  0  0  0
   38.9306  -19.7156   32.7341 C   0  0  0  0  0  0  0  0  0  0  0  0
   39.5359  -20.6054   33.6194 C   0  0  0  0  0  0  0  0  0  0  0  0
   38.9911  -20.6891   34.8846 C   0  0  0  0  0  0  0  0  0  0  0  0
   39.5461  -21.5363   35.7882 F   0  0  0  0  0  0  0  0  0  0  0  0
   37.8851  -19.9033   35.2297 C   0  0  0  0  0  0  0  0  0  0  0  0
   40.6891  -21.3762   33.1977 C   0  0  0  0  0  0  0  0  0  0  0  0
   41.4026  -21.9044   34.0953 O   0  0  0  0  0  0  0  0  0  0  0  0
   40.9974  -21.5311   31.8741 O   0  0  0  0  0  0  0  0  0  0  0  0
   40.6291  -22.2685   31.2634 H   0  0  0  0  0  0  0  0  0  0  0  0
 11 12  1  0  0  0
 12 13  1  0  0  0
 12 14  1  0  0  0
 12  5  1  0  0  0
  5  6  2  0  0  0
  6  7  1  0  0  0
  7  8  2  0  0  0
  8  1  1  0  0  0
  1  2  2  0  0  0
  1  3  1  0  0  0
  3 15  1  0  0  0
 15 16  1  0  0  0
 16 17  2  0  0  0
 17 18  1  0  0  0
 18 19  2  0  0  0
 19 23  1  0  0  0
 23 24  2  0  0  0
 23 25  1  0  0  0
 19 20  1  0  0  0
 20 21  1  0  0  0
 20 22  2  0  0  0
  8  9  1  0  0  0
  9 10  2  0  0  0
 10  5  1  0  0  0
 22 16  1  0  0  0
  3  4  1  0  0  0
 25 26  1  0  0  0
M  END
> <minimizedAffinity>
23.55941

> <CNNscore>
0.3548771143

> <CNNaffinity>
4.3488349915

> <CNN_VS>
1.5433020592

> <CNNaffinity_variance>
0.3336939216

$$$$
[H]OC(=O)c1c([H])c([H])c(C([H])([H])N([H])C(=O)c2c([H])c([H])c(C(C([H])([H])[H])(C([H])([H])[H])C([H])([H])[H])c([H])c2[H])c([H])c1F


 26 27  0  0  0  0  0  0  0  0999 V2000
   33.2136  -18.8141   34.3826 C   0  0  0  0  0  0  0  0  0  0  0  0
   33.0173  -17.6361   33.9618 O   0  0  0  0  0  0  0  0  0  0  0  0
   34.4837  -19.3855   34.2389 N   0  0  0  0  0  0  0  0  0  0  0  0
   34.6201  -20.3739   34.6149 H   0  0  0  0  0  0  0  0  0  0  0  0
   30.0885  -21.0873   36.1957 C   0  0  0  0  0  0  0  0  0  0  0  0
   29.8165  -20.0796   35.2899 C   0  0  0  0  0  0  0  0  0  0  0  0
   30.8173  -19.3333   34.7048 C   0  0  0  0  0  0  0  0  0  0  0  0
   32.1402  -19.5705   35.0099 C   0  0  0  0  0  0  0  0  0  0  0  0
   32.4515  -20.5579   35.9025 C   0  0  0  0  0  0  0  0  0  0  0  0
   31.4150  -21.2965   36.4768 C   0  0  0  0  0  0  0  0  0  0  0  0
   29.6637  -22.8080   37.8573 C   0  0  0  0  0  0  0  0  0  0  0  0
   29.0073  -21.9028   36.8341 C   0  0  0  0  0  0  0  0  0  0  0  0
   28.3667  -22.7925   35.7947 C   0  0  0  0  0  0  0  0  0  0  0  0
   27.9442  -21.0269   37.4653 C   0  0  0  0  0  0  0  0  0  0  0  0
   35.6472  -18.7863   33.6562 C   0  0  0  0  0  0  0  0  0  0  0  0
   36.8663  -18.9762   34.4786 C   0  0  0  0  0  0  0  0  0  0  0  0
   36.8237  -18.5429   35.8198 C   0  0  0  0  0  0  0  0  0  0  0  0
   37.9008  -18.7127   36.6499 C   0  0  0  0  0  0  0  0  0  0  0  0
   39.0869  -19.3130   36.2318 C   0  0  0  0  0  0  0  0  0  0  0  0
   39.1381  -19.7386   34.9200 C   0  0  0  0  0  0  0  0  0  0  0  0
   40.2682  -20.3353   34.4628 F   0  0  0  0  0  0  0  0  0  0  0  0
   38.0342  -19.5619   34.0775 C   0  0  0  0  0  0  0  0  0  0  0  0
   40.1845  -19.4772   37.1645 C   0  0  0  0  0  0  0  0  0  0  0  0
   41.1769  -18.7059   37.0452 O   0  0  0  0  0  0  0  0  0  0  0  0
   40.1510  -20.4317   38.1436 O   0  0  0  0  0  0  0  0  0  0  0  0
   39.7423  -20.3083   39.0764 H   0  0  0  0  0  0  0  0  0  0  0  0
 11 12  1  0  0  0
 12 13  1  0  0  0
 12 14  1  0  0  0
 12  5  1  0  0  0
  5  6  2  0  0  0
  6  7  1  0  0  0
  7  8  2  0  0  0
  8  1  1  0  0  0
  1  2  2  0  0  0
  1  3  1  0  0  0
  3 15  1  0  0  0
 15 16  1  0  0  0
 16 17  2  0  0  0
 17 18  1  0  0  0
 18 19  2  0  0  0
 19 23  1  0  0  0
 23 24  2  0  0  0
 23 25  1  0  0  0
 19 20  1  0  0  0
 20 21  1  0  0  0
 20 22  2  0  0  0
  8  9  1  0  0  0
  9 10  2  0  0  0
 10  5  1  0  0  0
 22 16  1  0  0  0
  3  4  1  0  0  0
 25 26  1  0  0  0
M  END
> <minimizedAffinity>
-5.87991

> <CNNscore>
0.3106839061

> <CNNaffinity>
3.9860961437

> <CNN_VS>
1.2384159565

> <CNNaffinity_variance>
0.2672557831

$$$$
[H]OC(=O)c1c([H])c([H])c(C([H])([H])N([H])C(=O)c2c([H])c([H])c(C(C([H])([H])[H])(C([H])([H])[H])C([H])([H])[H])c([H])c2[H])c([H])c1F


 26 27  0  0  0  0  0  0  0  0999 V2000
   35.3368  -17.7081   35.0976 C   0  0  0  0  0  0  0  0  0  0  0  0
   34.9496  -16.7728   35.8583 O   0  0  0  0  0  0  0  0  0  0  0  0
   34.3968  -18.3662   34.2953 N   0  0  0  0  0  0  0  0  0  0  0  0
   34.7566  -19.1405   33.6565 H   0  0  0  0  0  0  0  0  0  0  0  0
   39.4299  -18.9064   34.9216 C   0  0  0  0  0  0  0  0  0  0  0  0
   38.7508  -18.8298   36.1228 C   0  0  0  0  0  0  0  0  0  0  0  0
   37.4315  -18.4357   36.1924 C   0  0  0  0  0  0  0  0  0  0  0  0
   36.7377  -18.0991   35.0501 C   0  0  0  0  0  0  0  0  0  0  0  0
   37.3739  -18.1603   33.8418 C   0  0  0  0  0  0  0  0  0  0  0  0
   38.7100  -18.5643   33.8049 C   0  0  0  0  0  0  0  0  0  0  0  0
   41.6018  -18.6775   35.9860 C   0  0  0  0  0  0  0  0  0  0  0  0
   40.8622  -19.3348   34.8379 C   0  0  0  0  0  0  0  0  0  0  0  0
   41.4699  -18.8137   33.5569 C   0  0  0  0  0  0  0  0  0  0  0  0
   40.9985  -20.8433   34.8779 C   0  0  0  0  0  0  0  0  0  0  0  0
   32.9901  -18.1083   34.2121 C   0  0  0  0  0  0  0  0  0  0  0  0
   32.1659  -19.2859   34.5758 C   0  0  0  0  0  0  0  0  0  0  0  0
   32.7440  -20.5623   34.4169 C   0  0  0  0  0  0  0  0  0  0  0  0
   32.0549  -21.6959   34.7607 C   0  0  0  0  0  0  0  0  0  0  0  0
   30.7621  -21.6633   35.2800 C   0  0  0  0  0  0  0  0  0  0  0  0
   30.1878  -20.4183   35.4373 C   0  0  0  0  0  0  0  0  0  0  0  0
   28.9321  -20.3294   35.9447 F   0  0  0  0  0  0  0  0  0  0  0  0
   30.8974  -19.2645   35.0840 C   0  0  0  0  0  0  0  0  0  0  0  0
   30.0936  -22.8986   35.6390 C   0  0  0  0  0  0  0  0  0  0  0  0
   30.6499  -23.6397   36.4964 O   0  0  0  0  0  0  0  0  0  0  0  0
   28.8998  -23.2532   35.0734 O   0  0  0  0  0  0  0  0  0  0  0  0
   27.9752  -22.9765   35.4208 H   0  0  0  0  0  0  0  0  0  0  0  0
 11 12  1  0  0  0
 12 13  1  0  0  0
 12 14  1  0  0  0
 12  5  1  0  0  0
  5  6  2  0  0  0
  6  7  1  0  0  0
  7  8  2  0  0  0
  8  1  1  0  0  0
  1  2  2  0  0  0
  1  3  1  0  0  0
  3 15  1  0  0  0
 15 16  1  0  0  0
 16 17  2  0  0  0
 17 18  1  0  0  0
 18 19  2  0  0  0
 19 23  1  0  0  0
 23 24  2  0  0  0
 23 25  1  0  0  0
 19 20  1  0  0  0
 20 21  1  0  0  0
 20 22  2  0  0  0
  8  9  1  0  0  0
  9 10  2  0  0  0
 10  5  1  0  0  0
 22 16  1  0  0  0
  3  4  1  0  0  0
 25 26  1  0  0  0
M  END
> <minimizedAffinity>
-6.22149

> <CNNscore>
0.3047691584

> <CNNaffinity>
4.2133550644

> <CNN_VS>
1.2841006517

> <CNNaffinity_variance>
0.3711307645

$$$$
[H]OC(=O)c1c([H])c([H])c(C([H])([H])N([H])C(=O)c2c([H])c([H])c(C(C([H])([H])[H])(C([H])([H])[H])C([H])([H])[H])c([H])c2[H])c([H])c1F


 26 27  0  0  0  0  0  0  0  0999 V2000
   37.1327  -17.9996   36.7081 C   0  0  0  0  0  0  0  0  0  0  0  0
   36.8041  -19.0216   37.3796 O   0  0  0  0  0  0  0  0  0  0  0  0
   38.2974  -18.0405   35.9321 N   0  0  0  0  0  0  0  0  0  0  0  0
   38.5396  -17.1685   35.3684 H   0  0  0  0  0  0  0  0  0  0  0  0
   34.7281  -14.4756   36.8514 C   0  0  0  0  0  0  0  0  0  0  0  0
   34.3691  -15.5640   36.0792 C   0  0  0  0  0  0  0  0  0  0  0  0
   35.1423  -16.7038   36.0186 C   0  0  0  0  0  0  0  0  0  0  0  0
   36.3161  -16.7954   36.7351 C   0  0  0  0  0  0  0  0  0  0  0  0
   36.7075  -15.7397   37.5103 C   0  0  0  0  0  0  0  0  0  0  0  0
   35.9017  -14.6001   37.5512 C   0  0  0  0  0  0  0  0  0  0  0  0
   34.8170  -12.0515   36.7170 C   0  0  0  0  0  0  0  0  0  0  0  0
   33.8930  -13.2350   36.9234 C   0  0  0  0  0  0  0  0  0  0  0  0
   33.3015  -13.1053   38.3074 C   0  0  0  0  0  0  0  0  0  0  0  0
   32.7741  -13.2535   35.9019 C   0  0  0  0  0  0  0  0  0  0  0  0
   39.2079  -19.1368   35.7853 C   0  0  0  0  0  0  0  0  0  0  0  0
   40.3689  -19.0484   36.7033 C   0  0  0  0  0  0  0  0  0  0  0  0
   40.3310  -19.8230   37.8811 C   0  0  0  0  0  0  0  0  0  0  0  0
   41.3803  -19.8171   38.7626 C   0  0  0  0  0  0  0  0  0  0  0  0
   42.5321  -19.0598   38.5577 C   0  0  0  0  0  0  0  0  0  0  0  0
   42.5770  -18.2973   37.4084 C   0  0  0  0  0  0  0  0  0  0  0  0
   43.6787  -17.5453   37.1572 F   0  0  0  0  0  0  0  0  0  0  0  0
   41.5016  -18.3080   36.5123 C   0  0  0  0  0  0  0  0  0  0  0  0
   43.6139  -19.1101   39.5215 C   0  0  0  0  0  0  0  0  0  0  0  0
   44.6213  -19.8160   39.2373 O   0  0  0  0  0  0  0  0  0  0  0  0
   43.5520  -18.4170   40.6990 O   0  0  0  0  0  0  0  0  0  0  0  0
   43.8517  -17.4446   40.8296 H   0  0  0  0  0  0  0  0  0  0  0  0
 11 12  1  0  0  0
 12 13  1  0  0  0
 12 14  1  0  0  0
 12  5  1  0  0  0
  5  6  2  0  0  0
  6  7  1  0  0  0
  7  8  2  0  0  0
  8  1  1  0  0  0
  1  2  2  0  0  0
  1  3  1  0  0  0
  3 15  1  0  0  0
 15 16  1  0  0  0
 16 17  2  0  0  0
 17 18  1  0  0  0
 18 19  2  0  0  0
 19 23  1  0  0  0
 23 24  2  0  0  0
 23 25  1  0  0  0
 19 20  1  0  0  0
 20 21  1  0  0  0
 20 22  2  0  0  0
  8  9  1  0  0  0
  9 10  2  0  0  0
 10  5  1  0  0  0
 22 16  1  0  0  0
  3  4  1  0  0  0
 25 26  1  0  0  0
M  END
> <minimizedAffinity>
-7.48025

> <CNNscore>
0.2915775478

> <CNNaffinity>
4.4469981194

> <CNN_VS>
1.2966448069

> <CNNaffinity_variance>
0.1783135235

$$$$
[H]OC(=O)c1c([H])c([H])c(C([H])([H])N([H])C(=O)c2c([H])c([H])c(C(C([H])([H])[H])(C([H])([H])[H])C([H])([H])[H])c([H])c2[H])c([H])c1F


 26 27  0  0  0  0  0  0  0  0999 V2000
   35.1138  -19.5912   36.3354 C   0  0  0  0  0  0  0  0  0  0  0  0
   36.1400  -20.3173   36.1837 O   0  0  0  0  0  0  0  0  0  0  0  0
   33.8523  -20.1968   36.3814 N   0  0  0  0  0  0  0  0  0  0  0  0
   33.0093  -19.5594   36.5230 H   0  0  0  0  0  0  0  0  0  0  0  0
   35.4561  -15.3589   36.7728 C   0  0  0  0  0  0  0  0  0  0  0  0
   34.4894  -15.9256   35.9639 C   0  0  0  0  0  0  0  0  0  0  0  0
   34.3752  -17.2907   35.8084 C   0  0  0  0  0  0  0  0  0  0  0  0
   35.2346  -18.1466   36.4627 C   0  0  0  0  0  0  0  0  0  0  0  0
   36.2059  -17.6259   37.2714 C   0  0  0  0  0  0  0  0  0  0  0  0
   36.2946  -16.2392   37.4087 C   0  0  0  0  0  0  0  0  0  0  0  0
   36.8738  -13.6192   37.7032 C   0  0  0  0  0  0  0  0  0  0  0  0
   35.5855  -13.8776   36.9478 C   0  0  0  0  0  0  0  0  0  0  0  0
   34.4522  -13.3709   37.8085 C   0  0  0  0  0  0  0  0  0  0  0  0
   35.5646  -13.1529   35.6173 C   0  0  0  0  0  0  0  0  0  0  0  0
   33.5528  -21.5941   36.2797 C   0  0  0  0  0  0  0  0  0  0  0  0
   32.0969  -21.8688   36.2241 C   0  0  0  0  0  0  0  0  0  0  0  0
   31.6820  -23.2138   36.3095 C   0  0  0  0  0  0  0  0  0  0  0  0
   30.3518  -23.5433   36.2960 C   0  0  0  0  0  0  0  0  0  0  0  0
   29.3404  -22.5897   36.1987 C   0  0  0  0  0  0  0  0  0  0  0  0
   29.7374  -21.2707   36.1129 C   0  0  0  0  0  0  0  0  0  0  0  0
   28.7921  -20.3009   36.0221 F   0  0  0  0  0  0  0  0  0  0  0  0
   31.0978  -20.9412   36.1271 C   0  0  0  0  0  0  0  0  0  0  0  0
   27.9509  -23.0030   36.2059 C   0  0  0  0  0  0  0  0  0  0  0  0
   27.2892  -22.8200   37.2654 O   0  0  0  0  0  0  0  0  0  0  0  0
   27.3705  -23.5704   35.1049 O   0  0  0  0  0  0  0  0  0  0  0  0
   26.9242  -23.0540   34.3391 H   0  0  0  0  0  0  0  0  0  0  0  0
 11 12  1  0  0  0
 12 13  1  0  0  0
 12 14  1  0  0  0
 12  5  1  0  0  0
  5  6  2  0  0  0
  6  7  1  0  0  0
  7  8  2  0  0  0
  8  1  1  0  0  0
  1  2  2  0  0  0
  1  3  1  0  0  0
  3 15  1  0  0  0
 15 16  1  0  0  0
 16 17  2  0  0  0
 17 18  1  0  0  0
 18 19  2  0  0  0
 19 23  1  0  0  0
 23 24  2  0  0  0
 23 25  1  0  0  0
 19 20  1  0  0  0
 20 21  1  0  0  0
 20 22  2  0  0  0
  8  9  1  0  0  0
  9 10  2  0  0  0
 10  5  1  0  0  0
 22 16  1  0  0  0
  3  4  1  0  0  0
 25 26  1  0  0  0
M  END
> <minimizedAffinity>
-6.04726

> <CNNscore>
0.2910043597

> <CNNaffinity>
4.1874375343

> <CNN_VS>
1.2185626030

> <CNNaffinity_variance>
0.3022821844

$$$$
[H]OC(=O)c1c([H])c([H])c(C([H])([H])N([H])C(=O)c2c([H])c([H])c(C(C([H])([H])[H])(C([H])([H])[H])C([H])([H])[H])c([H])c2[H])c([H])c1F


 26 27  0  0  0  0  0  0  0  0999 V2000
   38.5481  -19.0423   35.2253 C   0  0  0  0  0  0  0  0  0  0  0  0
   38.4660  -18.5183   36.3751 O   0  0  0  0  0  0  0  0  0  0  0  0
   37.6967  -18.5914   34.2094 N   0  0  0  0  0  0  0  0  0  0  0  0
   37.7994  -19.0438   33.2493 H   0  0  0  0  0  0  0  0  0  0  0  0
   41.3416  -22.1795   34.4668 C   0  0  0  0  0  0  0  0  0  0  0  0
   41.7213  -21.0121   35.1015 C   0  0  0  0  0  0  0  0  0  0  0  0
   40.8297  -19.9889   35.3439 C   0  0  0  0  0  0  0  0  0  0  0  0
   39.5123  -20.0979   34.9541 C   0  0  0  0  0  0  0  0  0  0  0  0
   39.0967  -21.2364   34.3218 C   0  0  0  0  0  0  0  0  0  0  0  0
   40.0239  -22.2548   34.0920 C   0  0  0  0  0  0  0  0  0  0  0  0
   41.9146  -24.4548   35.0968 C   0  0  0  0  0  0  0  0  0  0  0  0
   42.3037  -23.2955   34.2014 C   0  0  0  0  0  0  0  0  0  0  0  0
   43.6956  -22.8672   34.6028 C   0  0  0  0  0  0  0  0  0  0  0  0
   42.3066  -23.6964   32.7402 C   0  0  0  0  0  0  0  0  0  0  0  0
   36.7012  -17.5651   34.2991 C   0  0  0  0  0  0  0  0  0  0  0  0
   35.3396  -18.1022   34.5356 C   0  0  0  0  0  0  0  0  0  0  0  0
   34.5039  -17.3959   35.4251 C   0  0  0  0  0  0  0  0  0  0  0  0
   33.2220  -17.8139   35.6701 C   0  0  0  0  0  0  0  0  0  0  0  0
   32.6698  -18.9431   35.0683 C   0  0  0  0  0  0  0  0  0  0  0  0
   33.4812  -19.6416   34.1975 C   0  0  0  0  0  0  0  0  0  0  0  0
   32.9908  -20.7460   33.5796 F   0  0  0  0  0  0  0  0  0  0  0  0
   34.7897  -19.2090   33.9519 C   0  0  0  0  0  0  0  0  0  0  0  0
   31.3011  -19.3230   35.3580 C   0  0  0  0  0  0  0  0  0  0  0  0
   31.1150  -20.3174   36.1134 O   0  0  0  0  0  0  0  0  0  0  0  0
   30.2435  -18.6306   34.8357 O   0  0  0  0  0  0  0  0  0  0  0  0
   29.8105  -17.8032   35.2601 H   0  0  0  0  0  0  0  0  0  0  0  0
 11 12  1  0  0  0
 12 13  1  0  0  0
 12 14  1  0  0  0
 12  5  1  0  0  0
  5  6  2  0  0  0
  6  7  1  0  0  0
  7  8  2  0  0  0
  8  1  1  0  0  0
  1  2  2  0  0  0
  1  3  1  0  0  0
  3 15  1  0  0  0
 15 16  1  0  0  0
 16 17  2  0  0  0
 17 18  1  0  0  0
 18 19  2  0  0  0
 19 23  1  0  0  0
 23 24  2  0  0  0
 23 25  1  0  0  0
 19 20  1  0  0  0
 20 21  1  0  0  0
 20 22  2  0  0  0
  8  9  1  0  0  0
  9 10  2  0  0  0
 10  5  1  0  0  0
 22 16  1  0  0  0
  3  4  1  0  0  0
 25 26  1  0  0  0
M  END
> <minimizedAffinity>
-5.29312

> <CNNscore>
0.2868559957

> <CNNaffinity>
4.1298704147

> <CNN_VS>
1.1846780777

> <CNNaffinity_variance>
0.3086495697

$$$$
[H]OC(=O)c1c([H])c([H])c(C([H])([H])N([H])C(=O)c2c([H])c([H])c(C(C([H])([H])[H])(C([H])([H])[H])C([H])([H])[H])c([H])c2[H])c([H])c1F


 26 27  0  0  0  0  0  0  0  0999 V2000
   37.1609  -18.1016   36.5747 C   0  0  0  0  0  0  0  0  0  0  0  0
   36.7735  -19.1921   37.0887 O   0  0  0  0  0  0  0  0  0  0  0  0
   38.3816  -18.0679   35.8896 N   0  0  0  0  0  0  0  0  0  0  0  0
   38.6734  -17.1379   35.4573 H   0  0  0  0  0  0  0  0  0  0  0  0
   34.8035  -14.5533   36.8430 C   0  0  0  0  0  0  0  0  0  0  0  0
   35.9757  -14.6976   37.5607 C   0  0  0  0  0  0  0  0  0  0  0  0
   36.7404  -15.8425   37.4884 C   0  0  0  0  0  0  0  0  0  0  0  0
   36.3543  -16.8958   36.6879 C   0  0  0  0  0  0  0  0  0  0  0  0
   35.2001  -16.7933   35.9627 C   0  0  0  0  0  0  0  0  0  0  0  0
   34.4486  -15.6202   36.0569 C   0  0  0  0  0  0  0  0  0  0  0  0
   32.9311  -13.3972   35.8136 C   0  0  0  0  0  0  0  0  0  0  0  0
   33.9685  -13.3126   36.9153 C   0  0  0  0  0  0  0  0  0  0  0  0
   34.8314  -12.1069   36.6262 C   0  0  0  0  0  0  0  0  0  0  0  0
   33.3238  -13.1504   38.2769 C   0  0  0  0  0  0  0  0  0  0  0  0
   39.2919  -19.1537   35.6783 C   0  0  0  0  0  0  0  0  0  0  0  0
   40.3621  -19.2160   36.7025 C   0  0  0  0  0  0  0  0  0  0  0  0
   41.4447  -18.3220   36.5716 C   0  0  0  0  0  0  0  0  0  0  0  0
   42.4561  -18.2996   37.4961 C   0  0  0  0  0  0  0  0  0  0  0  0
   42.4815  -19.1425   38.6055 C   0  0  0  0  0  0  0  0  0  0  0  0
   41.4267  -20.0220   38.7408 C   0  0  0  0  0  0  0  0  0  0  0  0
   41.3991  -20.8615   39.8069 F   0  0  0  0  0  0  0  0  0  0  0  0
   40.3970  -20.0397   37.7926 C   0  0  0  0  0  0  0  0  0  0  0  0
   43.5730  -19.0577   39.5558 C   0  0  0  0  0  0  0  0  0  0  0  0
   44.6220  -19.7141   39.3054 O   0  0  0  0  0  0  0  0  0  0  0  0
   43.4765  -18.2928   40.6856 O   0  0  0  0  0  0  0  0  0  0  0  0
   43.7128  -17.2964   40.7474 H   0  0  0  0  0  0  0  0  0  0  0  0
 11 12  1  0  0  0
 12 13  1  0  0  0
 12 14  1  0  0  0
 12  5  1  0  0  0
  5  6  2  0  0  0
  6  7  1  0  0  0
  7  8  2  0  0  0
  8  1  1  0  0  0
  1  2  2  0  0  0
  1  3  1  0  0  0
  3 15  1  0  0  0
 15 16  1  0  0  0
 16 17  2  0  0  0
 17 18  1  0  0  0
 18 19  2  0  0  0
 19 23  1  0  0  0
 23 24  2  0  0  0
 23 25  1  0  0  0
 19 20  1  0  0  0
 20 21  1  0  0  0
 20 22  2  0  0  0
  8  9  1  0  0  0
  9 10  2  0  0  0
 10  5  1  0  0  0
 22 16  1  0  0  0
  3  4  1  0  0  0
 25 26  1  0  0  0
M  END
> <minimizedAffinity>
-7.34679

> <CNNscore>
0.2860804498

> <CNNaffinity>
4.4340162277

> <CNN_VS>
1.2684853077

> <CNNaffinity_variance>
0.1641249508

$$$$
[H]OC(=O)c1c([H])c([H])c(C([H])([H])N([H])C(=O)c2c([H])c([H])c(C(C([H])([H])[H])(C([H])([H])[H])C([H])([H])[H])c([H])c2[H])c([H])c1F


 26 27  0  0  0  0  0  0  0  0999 V2000
   37.2596  -18.6347   35.1248 C   0  0  0  0  0  0  0  0  0  0  0  0
   36.9227  -17.7656   35.9819 O   0  0  0  0  0  0  0  0  0  0  0  0
   36.4328  -18.8536   34.0163 N   0  0  0  0  0  0  0  0  0  0  0  0
   36.7507  -19.5827   33.3062 H   0  0  0  0  0  0  0  0  0  0  0  0
   40.8979  -20.8212   35.5742 C   0  0  0  0  0  0  0  0  0  0  0  0
   40.0125  -21.0953   34.5491 C   0  0  0  0  0  0  0  0  0  0  0  0
   38.8306  -20.4014   34.3994 C   0  0  0  0  0  0  0  0  0  0  0  0
   38.4881  -19.3987   35.2808 C   0  0  0  0  0  0  0  0  0  0  0  0
   39.3364  -19.0977   36.3097 C   0  0  0  0  0  0  0  0  0  0  0  0
   40.5261  -19.8181   36.4331 C   0  0  0  0  0  0  0  0  0  0  0  0
   43.3137  -20.6089   35.4296 C   0  0  0  0  0  0  0  0  0  0  0  0
   42.1839  -21.5694   35.7424 C   0  0  0  0  0  0  0  0  0  0  0  0
   42.2528  -22.6872   34.7286 C   0  0  0  0  0  0  0  0  0  0  0  0
   42.3155  -22.1500   37.1357 C   0  0  0  0  0  0  0  0  0  0  0  0
   35.2010  -18.1919   33.7044 C   0  0  0  0  0  0  0  0  0  0  0  0
   34.0129  -18.9121   34.2221 C   0  0  0  0  0  0  0  0  0  0  0  0
   33.2167  -18.2538   35.1819 C   0  0  0  0  0  0  0  0  0  0  0  0
   32.0860  -18.8435   35.6839 C   0  0  0  0  0  0  0  0  0  0  0  0
   31.6563  -20.1083   35.2870 C   0  0  0  0  0  0  0  0  0  0  0  0
   32.4305  -20.7607   34.3492 C   0  0  0  0  0  0  0  0  0  0  0  0
   32.0538  -21.9932   33.9235 F   0  0  0  0  0  0  0  0  0  0  0  0
   33.5843  -20.1526   33.8407 C   0  0  0  0  0  0  0  0  0  0  0  0
   30.4416  -20.6696   35.8448 C   0  0  0  0  0  0  0  0  0  0  0  0
   29.3854  -20.5828   35.1586 O   0  0  0  0  0  0  0  0  0  0  0  0
   30.4342  -21.2755   37.0711 O   0  0  0  0  0  0  0  0  0  0  0  0
   30.6404  -22.2656   37.2429 H   0  0  0  0  0  0  0  0  0  0  0  0
 11 12  1  0  0  0
 12 13  1  0  0  0
 12 14  1  0  0  0
 12  5  1  0  0  0
  5  6  2  0  0  0
  6  7  1  0  0  0
  7  8  2  0  0  0
  8  1  1  0  0  0
  1  2  2  0  0  0
  1  3  1  0  0  0
  3 15  1  0  0  0
 15 16  1  0  0  0
 16 17  2  0  0  0
 17 18  1  0  0  0
 18 19  2  0  0  0
 19 23  1  0  0  0
 23 24  2  0  0  0
 23 25  1  0  0  0
 19 20  1  0  0  0
 20 21  1  0  0  0
 20 22  2  0  0  0
  8  9  1  0  0  0
  9 10  2  0  0  0
 10  5  1  0  0  0
 22 16  1  0  0  0
  3  4  1  0  0  0
 25 26  1  0  0  0
M  END
> <minimizedAffinity>
-5.34863

> <CNNscore>
0.2822682261

> <CNNaffinity>
3.9991543293

> <CNN_VS>
1.1288342476

> <CNNaffinity_variance>
0.3053970933

$$$$
[H]Oc1c([H])c(O[H])c([H])c([C@@]([H])(O[H])C([H])([H])N([H])[C@@]([H])(C([H])([H])[H])C([H])([H])c2c([H])c([H])c(OC([H])([H])[H])c([H])c2[H])c1[H]


 27 28  0  0  0  0  0  0  0  0999 V2000
   34.4658  -18.9160   34.6598 C   0  0  0  0  0  0  0  0  0  0  0  0
   33.0855  -18.8858   34.1040 C   0  0  0  0  0  0  0  0  0  0  0  0
   32.4072  -17.7233   34.6273 O   0  0  0  0  0  0  0  0  0  0  0  0
   32.2470  -17.1489   33.8613 H   0  0  0  0  0  0  0  0  0  0  0  0
   32.2070  -20.0139   34.5490 C   0  0  0  0  0  0  0  0  0  0  0  0
   32.4935  -21.3294   34.3342 C   0  0  0  0  0  0  0  0  0  0  0  0
   31.6456  -22.3539   34.7697 C   0  0  0  0  0  0  0  0  0  0  0  0
   31.9220  -23.6939   34.5592 O   0  0  0  0  0  0  0  0  0  0  0  0
   30.4952  -22.0077   35.4317 C   0  0  0  0  0  0  0  0  0  0  0  0
   30.1541  -20.7018   35.6773 C   0  0  0  0  0  0  0  0  0  0  0  0
   28.9807  -20.3907   36.3514 O   0  0  0  0  0  0  0  0  0  0  0  0
   31.0194  -19.7263   35.2298 C   0  0  0  0  0  0  0  0  0  0  0  0
   32.4701  -24.1476   35.3073 H   0  0  0  0  0  0  0  0  0  0  0  0
   29.0797  -20.3313   37.3762 H   0  0  0  0  0  0  0  0  0  0  0  0
   34.6861  -18.6647   36.0095 N   0  0  0  0  0  0  0  0  0  0  0  0
   33.8675  -18.8468   36.6430 H   0  0  0  0  0  0  0  0  0  0  0  0
   35.6630  -17.8126   36.5016 C   0  0  0  0  0  0  0  0  0  0  0  0
   36.7983  -18.5331   37.1705 C   0  0  0  0  0  0  0  0  0  0  0  0
   36.1563  -16.7372   35.5726 C   0  0  0  0  0  0  0  0  0  0  0  0
   34.6206  -12.9308   36.9060 C   0  0  0  0  0  0  0  0  0  0  0  0
   33.7817  -13.9346   36.4699 C   0  0  0  0  0  0  0  0  0  0  0  0
   34.2739  -15.1576   36.0447 C   0  0  0  0  0  0  0  0  0  0  0  0
   35.6310  -15.4261   36.0388 C   0  0  0  0  0  0  0  0  0  0  0  0
   36.4722  -14.4218   36.4753 C   0  0  0  0  0  0  0  0  0  0  0  0
   35.9725  -13.2026   36.8986 C   0  0  0  0  0  0  0  0  0  0  0  0
   32.8710  -11.5312   37.9095 C   0  0  0  0  0  0  0  0  0  0  0  0
   34.1501  -11.6924   37.3387 O   0  0  0  0  0  0  0  0  0  0  0  0
 26 27  1  0  0  0
 27 20  1  0  0  0
 20 21  2  0  0  0
 21 22  1  0  0  0
 22 23  2  0  0  0
 23 19  1  0  0  0
 19 17  1  0  0  0
 17 18  1  0  0  0
 17 15  1  0  0  0
 15  1  1  0  0  0
  1  2  1  0  0  0
  2  3  1  0  0  0
  2  5  1  0  0  0
  5  6  2  0  0  0
  6  7  1  0  0  0
  7  8  1  0  0  0
  7  9  2  0  0  0
  9 10  1  0  0  0
 10 11  1  0  0  0
 10 12  2  0  0  0
 23 24  1  0  0  0
 24 25  2  0  0  0
 25 20  1  0  0  0
 12  5  1  0  0  0
 15 16  1  0  0  0
  3  4  1  0  0  0
  8 13  1  0  0  0
 11 14  1  0  0  0
M  END
> <minimizedAffinity>
-6.99624

> <CNNscore>
0.7845451832

> <CNNaffinity>
4.8917121887

> <CNN_VS>
3.8377692699

> <CNNaffinity_variance>
0.2643326819

$$$$
[H]Oc1c([H])c(O[H])c([H])c([C@@]([H])(O[H])C([H])([H])N([H])[C@@]([H])(C([H])([H])[H])C([H])([H])c2c([H])c([H])c(OC([H])([H])[H])c([H])c2[H])c1[H]


 27 28  0  0  0  0  0  0  0  0999 V2000
   35.3393  -18.5775   35.9263 C   0  0  0  0  0  0  0  0  0  0  0  0
   35.9930  -17.3806   35.3302 C   0  0  0  0  0  0  0  0  0  0  0  0
   37.4230  -17.5792   35.3578 O   0  0  0  0  0  0  0  0  0  0  0  0
   37.6957  -17.6363   34.4279 H   0  0  0  0  0  0  0  0  0  0  0  0
   35.8159  -16.1162   36.1127 C   0  0  0  0  0  0  0  0  0  0  0  0
   36.8017  -15.5404   36.8581 C   0  0  0  0  0  0  0  0  0  0  0  0
   36.5948  -14.3553   37.5728 C   0  0  0  0  0  0  0  0  0  0  0  0
   37.5849  -13.7583   38.3341 O   0  0  0  0  0  0  0  0  0  0  0  0
   35.3571  -13.7671   37.5113 C   0  0  0  0  0  0  0  0  0  0  0  0
   34.3269  -14.2995   36.7783 C   0  0  0  0  0  0  0  0  0  0  0  0
   33.0876  -13.6744   36.7400 O   0  0  0  0  0  0  0  0  0  0  0  0
   34.5766  -15.4679   36.0905 C   0  0  0  0  0  0  0  0  0  0  0  0
   38.1707  -13.0756   37.8277 H   0  0  0  0  0  0  0  0  0  0  0  0
   32.9816  -12.9820   35.9831 H   0  0  0  0  0  0  0  0  0  0  0  0
   33.9623  -18.6048   36.1174 N   0  0  0  0  0  0  0  0  0  0  0  0
   33.6453  -18.6417   37.1187 H   0  0  0  0  0  0  0  0  0  0  0  0
   33.0450  -19.0310   35.1691 C   0  0  0  0  0  0  0  0  0  0  0  0
   32.8402  -18.0452   34.0548 C   0  0  0  0  0  0  0  0  0  0  0  0
   33.2083  -20.4331   34.6490 C   0  0  0  0  0  0  0  0  0  0  0  0
   29.6742  -22.7077   35.6295 C   0  0  0  0  0  0  0  0  0  0  0  0
   30.7355  -23.2771   34.9576 C   0  0  0  0  0  0  0  0  0  0  0  0
   31.8713  -22.5482   34.6454 C   0  0  0  0  0  0  0  0  0  0  0  0
   31.9910  -21.2149   34.9944 C   0  0  0  0  0  0  0  0  0  0  0  0
   30.9292  -20.6435   35.6671 C   0  0  0  0  0  0  0  0  0  0  0  0
   29.7978  -21.3786   35.9754 C   0  0  0  0  0  0  0  0  0  0  0  0
   27.5976  -22.9571   36.9147 C   0  0  0  0  0  0  0  0  0  0  0  0
   28.5212  -23.4196   35.9552 O   0  0  0  0  0  0  0  0  0  0  0  0
 26 27  1  0  0  0
 27 20  1  0  0  0
 20 21  2  0  0  0
 21 22  1  0  0  0
 22 23  2  0  0  0
 23 19  1  0  0  0
 19 17  1  0  0  0
 17 18  1  0  0  0
 17 15  1  0  0  0
 15  1  1  0  0  0
  1  2  1  0  0  0
  2  3  1  0  0  0
  2  5  1  0  0  0
  5  6  2  0  0  0
  6  7  1  0  0  0
  7  8  1  0  0  0
  7  9  2  0  0  0
  9 10  1  0  0  0
 10 11  1  0  0  0
 10 12  2  0  0  0
 23 24  1  0  0  0
 24 25  2  0  0  0
 25 20  1  0  0  0
 12  5  1  0  0  0
 15 16  1  0  0  0
  3  4  1  0  0  0
  8 13  1  0  0  0
 11 14  1  0  0  0
M  END
> <minimizedAffinity>
-6.00566

> <CNNscore>
0.6738848686

> <CNNaffinity>
4.4811472893

> <CNN_VS>
3.0197772980

> <CNNaffinity_variance>
0.4805759490

$$$$
[H]Oc1c([H])c(O[H])c([H])c([C@@]([H])(O[H])C([H])([H])N([H])[C@@]([H])(C([H])([H])[H])C([H])([H])c2c([H])c([H])c(OC([H])([H])[H])c([H])c2[H])c1[H]


 27 28  0  0  0  0  0  0  0  0999 V2000
   34.7311  -18.3319   34.6421 C   0  0  0  0  0  0  0  0  0  0  0  0
   33.3806  -18.3692   34.0176 C   0  0  0  0  0  0  0  0  0  0  0  0
   32.6745  -17.1636   34.3827 O   0  0  0  0  0  0  0  0  0  0  0  0
   32.5523  -16.6728   33.5541 H   0  0  0  0  0  0  0  0  0  0  0  0
   32.4828  -19.4514   34.5325 C   0  0  0  0  0  0  0  0  0  0  0  0
   31.2395  -19.2265   35.0450 C   0  0  0  0  0  0  0  0  0  0  0  0
   30.4309  -20.2680   35.5134 C   0  0  0  0  0  0  0  0  0  0  0  0
   29.1669  -20.0564   36.0366 O   0  0  0  0  0  0  0  0  0  0  0  0
   30.9180  -21.5487   35.4477 C   0  0  0  0  0  0  0  0  0  0  0  0
   32.1605  -21.8365   34.9423 C   0  0  0  0  0  0  0  0  0  0  0  0
   32.6189  -23.1463   34.8918 O   0  0  0  0  0  0  0  0  0  0  0  0
   32.9220  -20.7789   34.4927 C   0  0  0  0  0  0  0  0  0  0  0  0
   28.4000  -20.0844   35.3460 H   0  0  0  0  0  0  0  0  0  0  0  0
   32.3863  -23.6469   34.0207 H   0  0  0  0  0  0  0  0  0  0  0  0
   34.8775  -17.9855   35.9807 N   0  0  0  0  0  0  0  0  0  0  0  0
   34.0644  -18.2261   36.6017 H   0  0  0  0  0  0  0  0  0  0  0  0
   35.7354  -17.0023   36.4493 C   0  0  0  0  0  0  0  0  0  0  0  0
   37.0147  -17.5494   37.0144 C   0  0  0  0  0  0  0  0  0  0  0  0
   35.9847  -15.8296   35.5406 C   0  0  0  0  0  0  0  0  0  0  0  0
   33.9581  -12.3706   37.1383 C   0  0  0  0  0  0  0  0  0  0  0  0
   33.2595  -13.4572   36.6554 C   0  0  0  0  0  0  0  0  0  0  0  0
   33.9096  -14.5689   36.1452 C   0  0  0  0  0  0  0  0  0  0  0  0
   35.2904  -14.6381   36.0977 C   0  0  0  0  0  0  0  0  0  0  0  0
   35.9912  -13.5509   36.5810 C   0  0  0  0  0  0  0  0  0  0  0  0
   35.3342  -12.4438   37.0891 C   0  0  0  0  0  0  0  0  0  0  0  0
   31.9237  -11.1241   37.7164 C   0  0  0  0  0  0  0  0  0  0  0  0
   33.3275  -11.2410   37.6565 O   0  0  0  0  0  0  0  0  0  0  0  0
 26 27  1  0  0  0
 27 20  1  0  0  0
 20 21  2  0  0  0
 21 22  1  0  0  0
 22 23  2  0  0  0
 23 19  1  0  0  0
 19 17  1  0  0  0
 17 18  1  0  0  0
 17 15  1  0  0  0
 15  1  1  0  0  0
  1  2  1  0  0  0
  2  3  1  0  0  0
  2  5  1  0  0  0
  5  6  2  0  0  0
  6  7  1  0  0  0
  7  8  1  0  0  0
  7  9  2  0  0  0
  9 10  1  0  0  0
 10 11  1  0  0  0
 10 12  2  0  0  0
 23 24  1  0  0  0
 24 25  2  0  0  0
 25 20  1  0  0  0
 12  5  1  0  0  0
 15 16  1  0  0  0
  3  4  1  0  0  0
  8 13  1  0  0  0
 11 14  1  0  0  0
M  END
> <minimizedAffinity>
-6.75493

> <CNNscore>
0.6233724952

> <CNNaffinity>
4.7387127876

> <CNN_VS>
2.9539833069

> <CNNaffinity_variance>
0.5231076479

$$$$
[H]Oc1c([H])c(O[H])c([H])c([C@@]([H])(O[H])C([H])([H])N([H])[C@@]([H])(C([H])([H])[H])C([H])([H])c2c([H])c([H])c(OC([H])([H])[H])c([H])c2[H])c1[H]


 27 28  0  0  0  0  0  0  0  0999 V2000
   33.9175  -18.9864   34.2648 C   0  0  0  0  0  0  0  0  0  0  0  0
   35.2582  -18.3957   34.5270 C   0  0  0  0  0  0  0  0  0  0  0  0
   35.9997  -19.3015   35.3725 O   0  0  0  0  0  0  0  0  0  0  0  0
   36.7402  -19.6167   34.8296 H   0  0  0  0  0  0  0  0  0  0  0  0
   35.2387  -17.1308   35.3283 C   0  0  0  0  0  0  0  0  0  0  0  0
   34.1235  -16.3700   35.5190 C   0  0  0  0  0  0  0  0  0  0  0  0
   34.1483  -15.1949   36.2783 C   0  0  0  0  0  0  0  0  0  0  0  0
   33.0251  -14.4116   36.4812 O   0  0  0  0  0  0  0  0  0  0  0  0
   35.3384  -14.8103   36.8415 C   0  0  0  0  0  0  0  0  0  0  0  0
   36.4929  -15.5347   36.6849 C   0  0  0  0  0  0  0  0  0  0  0  0
   37.6789  -15.1133   37.2712 O   0  0  0  0  0  0  0  0  0  0  0  0
   36.4210  -16.6852   35.9287 C   0  0  0  0  0  0  0  0  0  0  0  0
   32.4661  -14.6598   37.3129 H   0  0  0  0  0  0  0  0  0  0  0  0
   37.8367  -15.4755   38.2238 H   0  0  0  0  0  0  0  0  0  0  0  0
   33.6640  -20.3187   34.5713 N   0  0  0  0  0  0  0  0  0  0  0  0
   34.0332  -21.0199   33.8809 H   0  0  0  0  0  0  0  0  0  0  0  0
   32.6390  -20.7545   35.3970 C   0  0  0  0  0  0  0  0  0  0  0  0
   32.9839  -20.6907   36.8573 C   0  0  0  0  0  0  0  0  0  0  0  0
   31.2665  -20.2022   35.1244 C   0  0  0  0  0  0  0  0  0  0  0  0
   28.3335  -23.1050   36.3875 C   0  0  0  0  0  0  0  0  0  0  0  0
   28.2070  -21.7680   36.7009 C   0  0  0  0  0  0  0  0  0  0  0  0
   29.1465  -20.8354   36.2931 C   0  0  0  0  0  0  0  0  0  0  0  0
   30.2549  -21.2050   35.5524 C   0  0  0  0  0  0  0  0  0  0  0  0
   30.3829  -22.5434   35.2379 C   0  0  0  0  0  0  0  0  0  0  0  0
   29.4397  -23.4690   35.6491 C   0  0  0  0  0  0  0  0  0  0  0  0
   27.4845  -24.7199   38.0302 C   0  0  0  0  0  0  0  0  0  0  0  0
   27.4021  -24.0622   36.7858 O   0  0  0  0  0  0  0  0  0  0  0  0
 26 27  1  0  0  0
 27 20  1  0  0  0
 20 21  2  0  0  0
 21 22  1  0  0  0
 22 23  2  0  0  0
 23 19  1  0  0  0
 19 17  1  0  0  0
 17 18  1  0  0  0
 17 15  1  0  0  0
 15  1  1  0  0  0
  1  2  1  0  0  0
  2  3  1  0  0  0
  2  5  1  0  0  0
  5  6  2  0  0  0
  6  7  1  0  0  0
  7  8  1  0  0  0
  7  9  2  0  0  0
  9 10  1  0  0  0
 10 11  1  0  0  0
 10 12  2  0  0  0
 23 24  1  0  0  0
 24 25  2  0  0  0
 25 20  1  0  0  0
 12  5  1  0  0  0
 15 16  1  0  0  0
  3  4  1  0  0  0
  8 13  1  0  0  0
 11 14  1  0  0  0
M  END
> <minimizedAffinity>
-5.63864

> <CNNscore>
0.5710409880

> <CNNaffinity>
4.2297654152

> <CNN_VS>
2.4153695107

> <CNNaffinity_variance>
0.5463875532

$$$$
[H]Oc1c([H])c(O[H])c([H])c([C@@]([H])(O[H])C([H])([H])N([H])[C@@]([H])(C([H])([H])[H])C([H])([H])c2c([H])c([H])c(OC([H])([H])[H])c([H])c2[H])c1[H]


 27 28  0  0  0  0  0  0  0  0999 V2000
   34.6228  -12.9452   36.5601 C   0  0  0  0  0  0  0  0  0  0  0  0
   33.7957  -12.6638   37.7651 C   0  0  0  0  0  0  0  0  0  0  0  0
   32.9913  -13.8288   38.0498 O   0  0  0  0  0  0  0  0  0  0  0  0
   33.3139  -14.1658   38.9011 H   0  0  0  0  0  0  0  0  0  0  0  0
   32.7715  -11.5867   37.5834 C   0  0  0  0  0  0  0  0  0  0  0  0
   31.4298  -11.8189   37.5131 C   0  0  0  0  0  0  0  0  0  0  0  0
   30.5054  -10.7819   37.3454 C   0  0  0  0  0  0  0  0  0  0  0  0
   29.1406  -11.0011   37.2721 O   0  0  0  0  0  0  0  0  0  0  0  0
   30.9793   -9.4981   37.2508 C   0  0  0  0  0  0  0  0  0  0  0  0
   32.3175   -9.2029   37.3148 C   0  0  0  0  0  0  0  0  0  0  0  0
   32.7590   -7.8901   37.2157 O   0  0  0  0  0  0  0  0  0  0  0  0
   33.1913  -10.2563   37.4805 C   0  0  0  0  0  0  0  0  0  0  0  0
   28.6473  -10.9798   38.1788 H   0  0  0  0  0  0  0  0  0  0  0  0
   32.8270   -7.3931   38.1167 H   0  0  0  0  0  0  0  0  0  0  0  0
   36.0043  -12.7941   36.6045 N   0  0  0  0  0  0  0  0  0  0  0  0
   36.3935  -12.0164   36.0142 H   0  0  0  0  0  0  0  0  0  0  0  0
   36.8941  -13.7962   36.9603 C   0  0  0  0  0  0  0  0  0  0  0  0
   38.2461  -13.2772   37.3576 C   0  0  0  0  0  0  0  0  0  0  0  0
   36.3930  -14.8386   37.9223 C   0  0  0  0  0  0  0  0  0  0  0  0
   35.3177  -18.3824   35.7065 C   0  0  0  0  0  0  0  0  0  0  0  0
   34.5532  -17.2361   35.6496 C   0  0  0  0  0  0  0  0  0  0  0  0
   34.8996  -16.0974   36.3582 C   0  0  0  0  0  0  0  0  0  0  0  0
   36.0296  -16.0601   37.1554 C   0  0  0  0  0  0  0  0  0  0  0  0
   36.7960  -17.2072   37.2133 C   0  0  0  0  0  0  0  0  0  0  0  0
   36.4431  -18.3409   36.5023 C   0  0  0  0  0  0  0  0  0  0  0  0
   34.5220  -19.5057   33.6739 C   0  0  0  0  0  0  0  0  0  0  0  0
   34.9906  -19.5402   35.0031 O   0  0  0  0  0  0  0  0  0  0  0  0
 26 27  1  0  0  0
 27 20  1  0  0  0
 20 21  2  0  0  0
 21 22  1  0  0  0
 22 23  2  0  0  0
 23 19  1  0  0  0
 19 17  1  0  0  0
 17 18  1  0  0  0
 17 15  1  0  0  0
 15  1  1  0  0  0
  1  2  1  0  0  0
  2  3  1  0  0  0
  2  5  1  0  0  0
  5  6  2  0  0  0
  6  7  1  0  0  0
  7  8  1  0  0  0
  7  9  2  0  0  0
  9 10  1  0  0  0
 10 11  1  0  0  0
 10 12  2  0  0  0
 23 24  1  0  0  0
 24 25  2  0  0  0
 25 20  1  0  0  0
 12  5  1  0  0  0
 15 16  1  0  0  0
  3  4  1  0  0  0
  8 13  1  0  0  0
 11 14  1  0  0  0
M  END
> <minimizedAffinity>
-7.65509

> <CNNscore>
0.5308166742

> <CNNaffinity>
5.4713850021

> <CNN_VS>
2.9043023586

> <CNNaffinity_variance>
0.0481857546

$$$$
[H]Oc1c([H])c(O[H])c([H])c([C@@]([H])(O[H])C([H])([H])N([H])[C@@]([H])(C([H])([H])[H])C([H])([H])c2c([H])c([H])c(OC([H])([H])[H])c([H])c2[H])c1[H]


 27 28  0  0  0  0  0  0  0  0999 V2000
   35.4757  -17.6256   35.0157 C   0  0  0  0  0  0  0  0  0  0  0  0
   34.4194  -16.8845   35.7575 C   0  0  0  0  0  0  0  0  0  0  0  0
   33.2860  -16.7043   34.8810 O   0  0  0  0  0  0  0  0  0  0  0  0
   32.5677  -17.2256   35.2744 H   0  0  0  0  0  0  0  0  0  0  0  0
   34.7829  -15.4796   36.1269 C   0  0  0  0  0  0  0  0  0  0  0  0
   36.0586  -15.0644   36.3702 C   0  0  0  0  0  0  0  0  0  0  0  0
   36.3554  -13.7399   36.7102 C   0  0  0  0  0  0  0  0  0  0  0  0
   37.6448  -13.3028   36.9605 O   0  0  0  0  0  0  0  0  0  0  0  0
   35.3204  -12.8439   36.7969 C   0  0  0  0  0  0  0  0  0  0  0  0
   34.0171  -13.2027   36.5630 C   0  0  0  0  0  0  0  0  0  0  0  0
   32.9961  -12.2666   36.6599 O   0  0  0  0  0  0  0  0  0  0  0  0
   33.7721  -14.5182   36.2312 C   0  0  0  0  0  0  0  0  0  0  0  0
   38.1558  -12.9586   36.1321 H   0  0  0  0  0  0  0  0  0  0  0  0
   32.7896  -11.7673   35.7816 H   0  0  0  0  0  0  0  0  0  0  0  0
   35.4201  -19.0108   34.9097 N   0  0  0  0  0  0  0  0  0  0  0  0
   35.0737  -19.3805   33.9889 H   0  0  0  0  0  0  0  0  0  0  0  0
   35.3385  -19.8795   35.9874 C   0  0  0  0  0  0  0  0  0  0  0  0
   36.6729  -20.1915   36.6019 C   0  0  0  0  0  0  0  0  0  0  0  0
   34.3031  -19.5681   37.0332 C   0  0  0  0  0  0  0  0  0  0  0  0
   30.7105  -21.7710   36.1032 C   0  0  0  0  0  0  0  0  0  0  0  0
   31.5758  -22.1865   37.0934 C   0  0  0  0  0  0  0  0  0  0  0  0
   32.7274  -21.4781   37.3943 C   0  0  0  0  0  0  0  0  0  0  0  0
   33.0607  -20.3208   36.7136 C   0  0  0  0  0  0  0  0  0  0  0  0
   32.1952  -19.9036   35.7219 C   0  0  0  0  0  0  0  0  0  0  0  0
   31.0464  -20.6170   35.4273 C   0  0  0  0  0  0  0  0  0  0  0  0
   28.5338  -22.7171   36.7307 C   0  0  0  0  0  0  0  0  0  0  0  0
   29.5459  -22.4659   35.7819 O   0  0  0  0  0  0  0  0  0  0  0  0
 26 27  1  0  0  0
 27 20  1  0  0  0
 20 21  2  0  0  0
 21 22  1  0  0  0
 22 23  2  0  0  0
 23 19  1  0  0  0
 19 17  1  0  0  0
 17 18  1  0  0  0
 17 15  1  0  0  0
 15  1  1  0  0  0
  1  2  1  0  0  0
  2  3  1  0  0  0
  2  5  1  0  0  0
  5  6  2  0  0  0
  6  7  1  0  0  0
  7  8  1  0  0  0
  7  9  2  0  0  0
  9 10  1  0  0  0
 10 11  1  0  0  0
 10 12  2  0  0  0
 23 24  1  0  0  0
 24 25  2  0  0  0
 25 20  1  0  0  0
 12  5  1  0  0  0
 15 16  1  0  0  0
  3  4  1  0  0  0
  8 13  1  0  0  0
 11 14  1  0  0  0
M  END
> <minimizedAffinity>
-6.01175

> <CNNscore>
0.4872464240

> <CNNaffinity>
4.5906705856

> <CNN_VS>
2.2367877960

> <CNNaffinity_variance>
0.4178469181

$$$$
[H]Oc1c([H])c(O[H])c([H])c([C@@]([H])(O[H])C([H])([H])N([H])[C@@]([H])(C([H])([H])[H])C([H])([H])c2c([H])c([H])c(OC([H])([H])[H])c([H])c2[H])c1[H]


 27 28  0  0  0  0  0  0  0  0999 V2000
   34.6069  -12.9759   36.8188 C   0  0  0  0  0  0  0  0  0  0  0  0
   33.5974  -12.7521   37.8893 C   0  0  0  0  0  0  0  0  0  0  0  0
   32.6745  -13.8628   37.8869 O   0  0  0  0  0  0  0  0  0  0  0  0
   32.8130  -14.3179   38.7332 H   0  0  0  0  0  0  0  0  0  0  0  0
   32.7016  -11.5728   37.6679 C   0  0  0  0  0  0  0  0  0  0  0  0
   33.1523  -10.2949   37.5167 C   0  0  0  0  0  0  0  0  0  0  0  0
   32.2802   -9.2206   37.3086 C   0  0  0  0  0  0  0  0  0  0  0  0
   32.7218   -7.9178   37.1534 O   0  0  0  0  0  0  0  0  0  0  0  0
   30.9337   -9.4773   37.2574 C   0  0  0  0  0  0  0  0  0  0  0  0
   30.4214  -10.7416   37.4025 C   0  0  0  0  0  0  0  0  0  0  0  0
   29.0517  -10.9621   37.3441 O   0  0  0  0  0  0  0  0  0  0  0  0
   31.3180  -11.7689   37.6056 C   0  0  0  0  0  0  0  0  0  0  0  0
   32.9229   -7.6398   36.1797 H   0  0  0  0  0  0  0  0  0  0  0  0
   28.6904  -11.1579   36.3982 H   0  0  0  0  0  0  0  0  0  0  0  0
   35.9630  -12.8328   37.0902 N   0  0  0  0  0  0  0  0  0  0  0  0
   36.3638  -11.8795   36.9025 H   0  0  0  0  0  0  0  0  0  0  0  0
   36.8708  -13.8800   37.1357 C   0  0  0  0  0  0  0  0  0  0  0  0
   38.2531  -13.4515   37.5367 C   0  0  0  0  0  0  0  0  0  0  0  0
   36.4386  -15.1215   37.8670 C   0  0  0  0  0  0  0  0  0  0  0  0
   35.5818  -18.1937   34.9597 C   0  0  0  0  0  0  0  0  0  0  0  0
   36.8148  -18.1021   35.5707 C   0  0  0  0  0  0  0  0  0  0  0  0
   37.0893  -17.1180   36.5061 C   0  0  0  0  0  0  0  0  0  0  0  0
   36.1370  -16.1824   36.8691 C   0  0  0  0  0  0  0  0  0  0  0  0
   34.9021  -16.2730   36.2581 C   0  0  0  0  0  0  0  0  0  0  0  0
   34.6357  -17.2593   35.3244 C   0  0  0  0  0  0  0  0  0  0  0  0
   33.9711  -19.6601   33.8274 C   0  0  0  0  0  0  0  0  0  0  0  0
   35.2812  -19.1742   34.0161 O   0  0  0  0  0  0  0  0  0  0  0  0
 26 27  1  0  0  0
 27 20  1  0  0  0
 20 21  2  0  0  0
 21 22  1  0  0  0
 22 23  2  0  0  0
 23 19  1  0  0  0
 19 17  1  0  0  0
 17 18  1  0  0  0
 17 15  1  0  0  0
 15  1  1  0  0  0
  1  2  1  0  0  0
  2  3  1  0  0  0
  2  5  1  0  0  0
  5  6  2  0  0  0
  6  7  1  0  0  0
  7  8  1  0  0  0
  7  9  2  0  0  0
  9 10  1  0  0  0
 10 11  1  0  0  0
 10 12  2  0  0  0
 23 24  1  0  0  0
 24 25  2  0  0  0
 25 20  1  0  0  0
 12  5  1  0  0  0
 15 16  1  0  0  0
  3  4  1  0  0  0
  8 13  1  0  0  0
 11 14  1  0  0  0
M  END
> <minimizedAffinity>
-7.99236

> <CNNscore>
0.4754989743

> <CNNaffinity>
5.2415313721

> <CNN_VS>
2.4923427105

> <CNNaffinity_variance>
0.1116710454

$$$$
[H]Oc1c([H])c(O[H])c([H])c([C@@]([H])(O[H])C([H])([H])N([H])[C@@]([H])(C([H])([H])[H])C([H])([H])c2c([H])c([H])c(OC([H])([H])[H])c([H])c2[H])c1[H]


 27 28  0  0  0  0  0  0  0  0999 V2000
   35.2963  -18.1829   35.2085 C   0  0  0  0  0  0  0  0  0  0  0  0
   34.9315  -19.2755   36.1509 C   0  0  0  0  0  0  0  0  0  0  0  0
   35.8234  -20.3890   35.9272 O   0  0  0  0  0  0  0  0  0  0  0  0
   36.3471  -20.4702   36.7406 H   0  0  0  0  0  0  0  0  0  0  0  0
   33.5803  -19.8775   35.9181 C   0  0  0  0  0  0  0  0  0  0  0  0
   33.3363  -21.2189   35.9199 C   0  0  0  0  0  0  0  0  0  0  0  0
   32.0565  -21.7403   35.7006 C   0  0  0  0  0  0  0  0  0  0  0  0
   31.7924  -23.0992   35.6991 O   0  0  0  0  0  0  0  0  0  0  0  0
   31.0263  -20.8620   35.4790 C   0  0  0  0  0  0  0  0  0  0  0  0
   31.2106  -19.5026   35.4659 C   0  0  0  0  0  0  0  0  0  0  0  0
   30.1425  -18.6450   35.2385 O   0  0  0  0  0  0  0  0  0  0  0  0
   32.4884  -19.0345   35.6864 C   0  0  0  0  0  0  0  0  0  0  0  0
   31.5411  -23.4945   36.6191 H   0  0  0  0  0  0  0  0  0  0  0  0
   29.6414  -18.3515   36.0907 H   0  0  0  0  0  0  0  0  0  0  0  0
   35.9444  -17.0428   35.6705 N   0  0  0  0  0  0  0  0  0  0  0  0
   36.8659  -17.2085   36.1480 H   0  0  0  0  0  0  0  0  0  0  0  0
   35.3142  -15.8415   35.9571 C   0  0  0  0  0  0  0  0  0  0  0  0
   33.8439  -15.8536   35.6513 C   0  0  0  0  0  0  0  0  0  0  0  0
   35.5981  -15.2300   37.3018 C   0  0  0  0  0  0  0  0  0  0  0  0
   33.7923  -11.3126   37.4354 C   0  0  0  0  0  0  0  0  0  0  0  0
   33.2378  -12.3858   38.1006 C   0  0  0  0  0  0  0  0  0  0  0  0
   33.8187  -13.6427   38.0605 C   0  0  0  0  0  0  0  0  0  0  0  0
   34.9825  -13.8768   37.3503 C   0  0  0  0  0  0  0  0  0  0  0  0
   35.5388  -12.8031   36.6838 C   0  0  0  0  0  0  0  0  0  0  0  0
   34.9523  -11.5503   36.7288 C   0  0  0  0  0  0  0  0  0  0  0  0
   33.8791   -8.9159   36.9109 C   0  0  0  0  0  0  0  0  0  0  0  0
   33.2273  -10.0388   37.4605 O   0  0  0  0  0  0  0  0  0  0  0  0
 26 27  1  0  0  0
 27 20  1  0  0  0
 20 21  2  0  0  0
 21 22  1  0  0  0
 22 23  2  0  0  0
 23 19  1  0  0  0
 19 17  1  0  0  0
 17 18  1  0  0  0
 17 15  1  0  0  0
 15  1  1  0  0  0
  1  2  1  0  0  0
  2  3  1  0  0  0
  2  5  1  0  0  0
  5  6  2  0  0  0
  6  7  1  0  0  0
  7  8  1  0  0  0
  7  9  2  0  0  0
  9 10  1  0  0  0
 10 11  1  0  0  0
 10 12  2  0  0  0
 23 24  1  0  0  0
 24 25  2  0  0  0
 25 20  1  0  0  0
 12  5  1  0  0  0
 15 16  1  0  0  0
  3  4  1  0  0  0
  8 13  1  0  0  0
 11 14  1  0  0  0
M  END
> <minimizedAffinity>
-6.19999

> <CNNscore>
0.4730121791

> <CNNaffinity>
4.6491837502

> <CNN_VS>
2.1991205215

> <CNNaffinity_variance>
0.2544264197

$$$$
[H]Oc1c([H])c(O[H])c([H])c([C@@]([H])(O[H])C([H])([H])N([H])[C@@]([H])(C([H])([H])[H])C([H])([H])c2c([H])c([H])c(OC([H])([H])[H])c([H])c2[H])c1[H]


 27 28  0  0  0  0  0  0  0  0999 V2000
   35.2650  -17.7326   34.5483 C   0  0  0  0  0  0  0  0  0  0  0  0
   34.5740  -17.1684   35.7396 C   0  0  0  0  0  0  0  0  0  0  0  0
   33.1624  -17.0771   35.4490 O   0  0  0  0  0  0  0  0  0  0  0  0
   32.7316  -17.7031   36.0531 H   0  0  0  0  0  0  0  0  0  0  0  0
   34.9407  -15.7532   36.0638 C   0  0  0  0  0  0  0  0  0  0  0  0
   36.2159  -15.3357   36.3058 C   0  0  0  0  0  0  0  0  0  0  0  0
   36.5158  -14.0016   36.6026 C   0  0  0  0  0  0  0  0  0  0  0  0
   37.8047  -13.5620   36.8509 O   0  0  0  0  0  0  0  0  0  0  0  0
   35.4844  -13.0983   36.6474 C   0  0  0  0  0  0  0  0  0  0  0  0
   34.1818  -13.4590   36.4126 C   0  0  0  0  0  0  0  0  0  0  0  0
   33.1646  -12.5154   36.4664 O   0  0  0  0  0  0  0  0  0  0  0  0
   33.9337  -14.7841   36.1242 C   0  0  0  0  0  0  0  0  0  0  0  0
   38.3259  -13.2492   36.0164 H   0  0  0  0  0  0  0  0  0  0  0  0
   32.9695  -12.0459   35.5692 H   0  0  0  0  0  0  0  0  0  0  0  0
   36.6413  -17.9296   34.5614 N   0  0  0  0  0  0  0  0  0  0  0  0
   37.1847  -17.3727   33.8549 H   0  0  0  0  0  0  0  0  0  0  0  0
   37.2695  -19.0586   35.0647 C   0  0  0  0  0  0  0  0  0  0  0  0
   37.9850  -19.8588   34.0144 C   0  0  0  0  0  0  0  0  0  0  0  0
   38.1145  -18.8733   36.2953 C   0  0  0  0  0  0  0  0  0  0  0  0
   36.3876  -21.1561   39.5251 C   0  0  0  0  0  0  0  0  0  0  0  0
   35.6490  -20.2273   38.8225 C   0  0  0  0  0  0  0  0  0  0  0  0
   36.2020  -19.4965   37.7838 C   0  0  0  0  0  0  0  0  0  0  0  0
   37.5217  -19.6667   37.4050 C   0  0  0  0  0  0  0  0  0  0  0  0
   38.2623  -20.5964   38.1077 C   0  0  0  0  0  0  0  0  0  0  0  0
   37.7024  -21.3225   39.1443 C   0  0  0  0  0  0  0  0  0  0  0  0
   36.2962  -21.7551   41.9041 C   0  0  0  0  0  0  0  0  0  0  0  0
   35.8543  -21.9036   40.5735 O   0  0  0  0  0  0  0  0  0  0  0  0
 26 27  1  0  0  0
 27 20  1  0  0  0
 20 21  2  0  0  0
 21 22  1  0  0  0
 22 23  2  0  0  0
 23 19  1  0  0  0
 19 17  1  0  0  0
 17 18  1  0  0  0
 17 15  1  0  0  0
 15  1  1  0  0  0
  1  2  1  0  0  0
  2  3  1  0  0  0
  2  5  1  0  0  0
  5  6  2  0  0  0
  6  7  1  0  0  0
  7  8  1  0  0  0
  7  9  2  0  0  0
  9 10  1  0  0  0
 10 11  1  0  0  0
 10 12  2  0  0  0
 23 24  1  0  0  0
 24 25  2  0  0  0
 25 20  1  0  0  0
 12  5  1  0  0  0
 15 16  1  0  0  0
  3  4  1  0  0  0
  8 13  1  0  0  0
 11 14  1  0  0  0
M  END
> <minimizedAffinity>
-6.23011

> <CNNscore>
0.4608678520

> <CNNaffinity>
4.4946389198

> <CNN_VS>
2.0714344978

> <CNNaffinity_variance>
0.4326303601

$$$$
[H]c1nc(N2C([H])([H])C([H])([H])C(N3C([H])([H])C([H])([H])OC([H])([H])C3([H])[H])(C([H])(C([H])([H])[H])C([H])([H])[H])C([H])([H])C2([H])[H])c([H])c2c1C(=O)c1c(n([H])c3c([H])c(C#N)c([H])c([H])c13)C2(C([H])([H])[H])C([H])([H])[H]


 38 43  0  0  0  0  0  0  0  0999 V2000
   33.0974  -22.9492   39.6835 C   0  0  0  0  0  0  0  0  0  0  0  0
   34.3847  -23.3872   39.5130 C   0  0  0  0  0  0  0  0  0  0  0  0
   35.4505  -22.8287   40.2321 C   0  0  0  0  0  0  0  0  0  0  0  0
   35.1582  -21.8233   41.1168 C   0  0  0  0  0  0  0  0  0  0  0  0
   33.8495  -21.3987   41.2706 C   0  0  0  0  0  0  0  0  0  0  0  0
   32.8585  -21.9608   40.5620 N   0  0  0  0  0  0  0  0  0  0  0  0
   36.2261  -21.2097   41.8886 C   0  0  0  0  0  0  0  0  0  0  0  0
   35.9656  -20.2790   42.7092 O   0  0  0  0  0  0  0  0  0  0  0  0
   37.5868  -21.6769   41.7056 C   0  0  0  0  0  0  0  0  0  0  0  0
   37.8290  -22.6869   40.8074 C   0  0  0  0  0  0  0  0  0  0  0  0
   39.1656  -22.9534   40.8072 N   0  0  0  0  0  0  0  0  0  0  0  0
   39.7869  -22.1347   41.6872 C   0  0  0  0  0  0  0  0  0  0  0  0
   41.1124  -21.9987   42.0602 C   0  0  0  0  0  0  0  0  0  0  0  0
   41.4589  -21.0611   43.0001 C   0  0  0  0  0  0  0  0  0  0  0  0
   40.4623  -20.2789   43.5456 C   0  0  0  0  0  0  0  0  0  0  0  0
   39.1427  -20.4119   43.1763 C   0  0  0  0  0  0  0  0  0  0  0  0
   38.8008  -21.3444   42.2419 C   0  0  0  0  0  0  0  0  0  0  0  0
   36.7992  -23.3450   40.0020 C   0  0  0  0  0  0  0  0  0  0  0  0
   36.8711  -24.8437   40.3263 C   0  0  0  0  0  0  0  0  0  0  0  0
   37.2318  -23.2313   38.5412 C   0  0  0  0  0  0  0  0  0  0  0  0
   39.6693  -23.6601   40.2413 H   0  0  0  0  0  0  0  0  0  0  0  0
   29.7976  -24.4339   37.1537 C   0  0  0  0  0  0  0  0  0  0  0  0
   29.8955  -23.0778   37.8851 C   0  0  0  0  0  0  0  0  0  0  0  0
   30.6221  -23.1563   39.1888 C   0  0  0  0  0  0  0  0  0  0  0  0
   32.0053  -23.5200   38.9507 N   0  0  0  0  0  0  0  0  0  0  0  0
   32.2061  -24.5162   37.9055 C   0  0  0  0  0  0  0  0  0  0  0  0
   30.8897  -25.2575   37.8025 C   0  0  0  0  0  0  0  0  0  0  0  0
   30.0276  -24.1476   35.8066 N   0  0  0  0  0  0  0  0  0  0  0  0
   29.9877  -25.0564   34.7816 C   0  0  0  0  0  0  0  0  0  0  0  0
   31.1545  -24.9309   33.8322 C   0  0  0  0  0  0  0  0  0  0  0  0
   31.4950  -23.6370   33.5413 O   0  0  0  0  0  0  0  0  0  0  0  0
   31.7015  -22.8697   34.6917 C   0  0  0  0  0  0  0  0  0  0  0  0
   30.3749  -22.8381   35.4224 C   0  0  0  0  0  0  0  0  0  0  0  0
   28.4496  -26.0709   38.5361 C   0  0  0  0  0  0  0  0  0  0  0  0
   28.4637  -25.0604   37.3872 C   0  0  0  0  0  0  0  0  0  0  0  0
   27.3072  -24.1632   37.6543 C   0  0  0  0  0  0  0  0  0  0  0  0
   42.8468  -20.8905   43.4173 C   0  0  0  0  0  0  0  0  0  0  0  0
   43.9452  -20.7704   43.7569 N   0  0  0  0  0  0  0  0  0  0  0  0
 34 35  1  0  0  0
 35 36  1  0  0  0
 35 22  1  0  0  0
 22 28  1  0  0  0
 28 29  1  0  0  0
 29 30  1  0  0  0
 30 31  1  0  0  0
 31 32  1  0  0  0
 32 33  1  0  0  0
 22 23  1  0  0  0
 23 24  1  0  0  0
 24 25  1  0  0  0
 25  1  1  0  0  0
  1  2  2  0  0  0
  2  3  1  0  0  0
  3  4  2  0  0  0
  4  5  1  0  0  0
  5  6  2  0  0  0
  4  7  1  0  0  0
  7  8  2  0  0  0
  7  9  1  0  0  0
  9 10  2  0  0  0
 10 11  1  0  0  0
 11 12  1  0  0  0
 12 13  2  0  0  0
 13 14  1  0  0  0
 14 37  1  0  0  0
 37 38  3  0  0  0
 14 15  2  0  0  0
 15 16  1  0  0  0
 16 17  2  0  0  0
 10 18  1  0  0  0
 18 19  1  0  0  0
 18 20  1  0  0  0
 25 26  1  0  0  0
 26 27  1  0  0  0
 27 22  1  0  0  0
 33 28  1  0  0  0
  6  1  1  0  0  0
 17  9  1  0  0  0
 18  3  1  0  0  0
 17 12  1  0  0  0
 11 21  1  0  0  0
M  END
> <minimizedAffinity>
-3.75161

> <CNNscore>
0.6240046024

> <CNNaffinity>
5.4890623093

> <CNN_VS>
3.4252002239

> <CNNaffinity_variance>
0.0910935849

$$$$
[H]c1nc(N2C([H])([H])C([H])([H])C(N3C([H])([H])C([H])([H])OC([H])([H])C3([H])[H])(C([H])(C([H])([H])[H])C([H])([H])[H])C([H])([H])C2([H])[H])c([H])c2c1C(=O)c1c(n([H])c3c([H])c(C#N)c([H])c([H])c13)C2(C([H])([H])[H])C([H])([H])[H]


 38 43  0  0  0  0  0  0  0  0999 V2000
   33.8442  -22.5257   39.1653 C   0  0  0  0  0  0  0  0  0  0  0  0
   35.1230  -22.6229   39.6479 C   0  0  0  0  0  0  0  0  0  0  0  0
   36.1797  -21.9014   39.0753 C   0  0  0  0  0  0  0  0  0  0  0  0
   35.8870  -21.0906   38.0095 C   0  0  0  0  0  0  0  0  0  0  0  0
   34.5868  -21.0099   37.5407 C   0  0  0  0  0  0  0  0  0  0  0  0
   33.6045  -21.7181   38.1183 N   0  0  0  0  0  0  0  0  0  0  0  0
   36.9456  -20.3197   37.3787 C   0  0  0  0  0  0  0  0  0  0  0  0
   36.6846  -19.5671   36.3923 O   0  0  0  0  0  0  0  0  0  0  0  0
   38.2974  -20.4250   37.8932 C   0  0  0  0  0  0  0  0  0  0  0  0
   38.5402  -21.2509   38.9631 C   0  0  0  0  0  0  0  0  0  0  0  0
   39.8677  -21.1869   39.2653 N   0  0  0  0  0  0  0  0  0  0  0  0
   40.4824  -20.3367   38.4110 C   0  0  0  0  0  0  0  0  0  0  0  0
   41.7978  -19.9253   38.2885 C   0  0  0  0  0  0  0  0  0  0  0  0
   42.1394  -19.0324   37.3043 C   0  0  0  0  0  0  0  0  0  0  0  0
   41.1482  -18.5715   36.4630 C   0  0  0  0  0  0  0  0  0  0  0  0
   39.8387  -18.9792   36.5826 C   0  0  0  0  0  0  0  0  0  0  0  0
   39.5016  -19.8667   37.5614 C   0  0  0  0  0  0  0  0  0  0  0  0
   37.5197  -22.0511   39.6414 C   0  0  0  0  0  0  0  0  0  0  0  0
   37.5363  -21.6340   41.1185 C   0  0  0  0  0  0  0  0  0  0  0  0
   38.0050  -23.4997   39.6300 C   0  0  0  0  0  0  0  0  0  0  0  0
   40.3694  -21.6904   40.0192 H   0  0  0  0  0  0  0  0  0  0  0  0
   30.2670  -24.5367   40.7940 C   0  0  0  0  0  0  0  0  0  0  0  0
   30.7890  -23.1206   41.1187 C   0  0  0  0  0  0  0  0  0  0  0  0
   32.2798  -23.0165   41.0959 C   0  0  0  0  0  0  0  0  0  0  0  0
   32.7614  -23.2611   39.7503 N   0  0  0  0  0  0  0  0  0  0  0  0
   32.0603  -24.3177   39.0309 C   0  0  0  0  0  0  0  0  0  0  0  0
   31.4452  -25.1910   40.1041 C   0  0  0  0  0  0  0  0  0  0  0  0
   29.1599  -24.3443   39.9654 N   0  0  0  0  0  0  0  0  0  0  0  0
   28.4669  -25.3349   39.3200 C   0  0  0  0  0  0  0  0  0  0  0  0
   28.1748  -25.0095   37.8752 C   0  0  0  0  0  0  0  0  0  0  0  0
   27.7984  -23.7099   37.6655 O   0  0  0  0  0  0  0  0  0  0  0  0
   28.7082  -22.7981   38.2095 C   0  0  0  0  0  0  0  0  0  0  0  0
   28.7035  -23.0378   39.7053 C   0  0  0  0  0  0  0  0  0  0  0  0
   31.0896  -26.0715   42.6314 C   0  0  0  0  0  0  0  0  0  0  0  0
   29.9244  -25.2695   42.0479 C   0  0  0  0  0  0  0  0  0  0  0  0
   29.3910  -24.4837   43.1932 C   0  0  0  0  0  0  0  0  0  0  0  0
   43.5168  -18.5768   37.1462 C   0  0  0  0  0  0  0  0  0  0  0  0
   44.6029  -18.1999   37.0262 N   0  0  0  0  0  0  0  0  0  0  0  0
 34 35  1  0  0  0
 35 36  1  0  0  0
 35 22  1  0  0  0
 22 28  1  0  0  0
 28 29  1  0  0  0
 29 30  1  0  0  0
 30 31  1  0  0  0
 31 32  1  0  0  0
 32 33  1  0  0  0
 22 23  1  0  0  0
 23 24  1  0  0  0
 24 25  1  0  0  0
 25  1  1  0  0  0
  1  2  2  0  0  0
  2  3  1  0  0  0
  3  4  2  0  0  0
  4  5  1  0  0  0
  5  6  2  0  0  0
  4  7  1  0  0  0
  7  8  2  0  0  0
  7  9  1  0  0  0
  9 10  2  0  0  0
 10 11  1  0  0  0
 11 12  1  0  0  0
 12 13  2  0  0  0
 13 14  1  0  0  0
 14 37  1  0  0  0
 37 38  3  0  0  0
 14 15  2  0  0  0
 15 16  1  0  0  0
 16 17  2  0  0  0
 10 18  1  0  0  0
 18 19  1  0  0  0
 18 20  1  0  0  0
 25 26  1  0  0  0
 26 27  1  0  0  0
 27 22  1  0  0  0
 33 28  1  0  0  0
  6  1  1  0  0  0
 17  9  1  0  0  0
 18  3  1  0  0  0
 17 12  1  0  0  0
 11 21  1  0  0  0
M  END
> <minimizedAffinity>
-3.90249

> <CNNscore>
0.5804926157

> <CNNaffinity>
5.5900840759

> <CNN_VS>
3.2450025082

> <CNNaffinity_variance>
0.2884244919

$$$$
[H]c1nc(N2C([H])([H])C([H])([H])C(N3C([H])([H])C([H])([H])OC([H])([H])C3([H])[H])(C([H])(C([H])([H])[H])C([H])([H])[H])C([H])([H])C2([H])[H])c([H])c2c1C(=O)c1c(n([H])c3c([H])c(C#N)c([H])c([H])c13)C2(C([H])([H])[H])C([H])([H])[H]


 38 43  0  0  0  0  0  0  0  0999 V2000
   38.1758  -20.5875   38.2587 C   0  0  0  0  0  0  0  0  0  0  0  0
   38.0363  -21.4455   39.3181 C   0  0  0  0  0  0  0  0  0  0  0  0
   36.7733  -21.8414   39.7796 C   0  0  0  0  0  0  0  0  0  0  0  0
   35.6764  -21.3373   39.1303 C   0  0  0  0  0  0  0  0  0  0  0  0
   35.8440  -20.4720   38.0626 C   0  0  0  0  0  0  0  0  0  0  0  0
   37.0717  -20.1185   37.6528 N   0  0  0  0  0  0  0  0  0  0  0  0
   34.3430  -21.7160   39.5678 C   0  0  0  0  0  0  0  0  0  0  0  0
   33.3224  -21.2548   38.9735 O   0  0  0  0  0  0  0  0  0  0  0  0
   34.2001  -22.6248   40.6889 C   0  0  0  0  0  0  0  0  0  0  0  0
   35.3294  -23.1029   41.3067 C   0  0  0  0  0  0  0  0  0  0  0  0
   34.9493  -23.9299   42.3212 N   0  0  0  0  0  0  0  0  0  0  0  0
   33.5986  -23.9924   42.3676 C   0  0  0  0  0  0  0  0  0  0  0  0
   32.7235  -24.6757   43.1933 C   0  0  0  0  0  0  0  0  0  0  0  0
   31.3710  -24.5464   43.0021 C   0  0  0  0  0  0  0  0  0  0  0  0
   30.9270  -23.7308   41.9821 C   0  0  0  0  0  0  0  0  0  0  0  0
   31.7955  -23.0497   41.1590 C   0  0  0  0  0  0  0  0  0  0  0  0
   33.1392  -23.1798   41.3510 C   0  0  0  0  0  0  0  0  0  0  0  0
   36.6972  -22.7608   40.9143 C   0  0  0  0  0  0  0  0  0  0  0  0
   37.4115  -24.0812   40.5938 C   0  0  0  0  0  0  0  0  0  0  0  0
   37.3986  -22.2192   42.1588 C   0  0  0  0  0  0  0  0  0  0  0  0
   35.5612  -24.4486   42.9769 H   0  0  0  0  0  0  0  0  0  0  0  0
   42.1078  -19.6030   36.5087 C   0  0  0  0  0  0  0  0  0  0  0  0
   41.6695  -20.9266   37.1715 C   0  0  0  0  0  0  0  0  0  0  0  0
   40.7038  -20.7373   38.2964 C   0  0  0  0  0  0  0  0  0  0  0  0
   39.4663  -20.1824   37.7835 N   0  0  0  0  0  0  0  0  0  0  0  0
   39.6311  -19.1746   36.7431 C   0  0  0  0  0  0  0  0  0  0  0  0
   41.0304  -18.6284   36.9345 C   0  0  0  0  0  0  0  0  0  0  0  0
   42.1278  -19.8625   35.1370 N   0  0  0  0  0  0  0  0  0  0  0  0
   42.2329  -18.9180   34.1496 C   0  0  0  0  0  0  0  0  0  0  0  0
   41.2529  -19.1286   33.0210 C   0  0  0  0  0  0  0  0  0  0  0  0
   41.1043  -20.4392   32.6539 O   0  0  0  0  0  0  0  0  0  0  0  0
   40.8005  -21.2648   33.7407 C   0  0  0  0  0  0  0  0  0  0  0  0
   41.9891  -21.1861   34.6765 C   0  0  0  0  0  0  0  0  0  0  0  0
   43.3529  -18.1186   38.1379 C   0  0  0  0  0  0  0  0  0  0  0  0
   43.4374  -19.1706   37.0300 C   0  0  0  0  0  0  0  0  0  0  0  0
   44.3517  -20.2154   37.5652 C   0  0  0  0  0  0  0  0  0  0  0  0
   30.4193  -25.2523   43.8539 C   0  0  0  0  0  0  0  0  0  0  0  0
   29.6737  -25.8266   44.5250 N   0  0  0  0  0  0  0  0  0  0  0  0
 34 35  1  0  0  0
 35 36  1  0  0  0
 35 22  1  0  0  0
 22 28  1  0  0  0
 28 29  1  0  0  0
 29 30  1  0  0  0
 30 31  1  0  0  0
 31 32  1  0  0  0
 32 33  1  0  0  0
 22 23  1  0  0  0
 23 24  1  0  0  0
 24 25  1  0  0  0
 25  1  1  0  0  0
  1  2  2  0  0  0
  2  3  1  0  0  0
  3  4  2  0  0  0
  4  5  1  0  0  0
  5  6  2  0  0  0
  4  7  1  0  0  0
  7  8  2  0  0  0
  7  9  1  0  0  0
  9 10  2  0  0  0
 10 11  1  0  0  0
 11 12  1  0  0  0
 12 13  2  0  0  0
 13 14  1  0  0  0
 14 37  1  0  0  0
 37 38  3  0  0  0
 14 15  2  0  0  0
 15 16  1  0  0  0
 16 17  2  0  0  0
 10 18  1  0  0  0
 18 19  1  0  0  0
 18 20  1  0  0  0
 25 26  1  0  0  0
 26 27  1  0  0  0
 27 22  1  0  0  0
 33 28  1  0  0  0
  6  1  1  0  0  0
 17  9  1  0  0  0
 18  3  1  0  0  0
 17 12  1  0  0  0
 11 21  1  0  0  0
M  END
> <minimizedAffinity>
-4.57620

> <CNNscore>
0.5659497380

> <CNNaffinity>
5.6446237564

> <CNN_VS>
3.1945734024

> <CNNaffinity_variance>
0.0769328922

$$$$
[H]c1nc(N2C([H])([H])C([H])([H])C(N3C([H])([H])C([H])([H])OC([H])([H])C3([H])[H])(C([H])(C([H])([H])[H])C([H])([H])[H])C([H])([H])C2([H])[H])c([H])c2c1C(=O)c1c(n([H])c3c([H])c(C#N)c([H])c([H])c13)C2(C([H])([H])[H])C([H])([H])[H]


 38 43  0  0  0  0  0  0  0  0999 V2000
   33.1376  -22.5721   38.8911 C   0  0  0  0  0  0  0  0  0  0  0  0
   34.4882  -22.5188   38.6657 C   0  0  0  0  0  0  0  0  0  0  0  0
   35.3813  -22.0952   39.6596 C   0  0  0  0  0  0  0  0  0  0  0  0
   34.8532  -21.7343   40.8719 C   0  0  0  0  0  0  0  0  0  0  0  0
   33.4850  -21.7969   41.0745 C   0  0  0  0  0  0  0  0  0  0  0  0
   32.6651  -22.2083   40.0954 N   0  0  0  0  0  0  0  0  0  0  0  0
   35.7349  -21.2881   41.9378 C   0  0  0  0  0  0  0  0  0  0  0  0
   35.2556  -20.9520   43.0624 O   0  0  0  0  0  0  0  0  0  0  0  0
   37.1637  -21.2340   41.6951 C   0  0  0  0  0  0  0  0  0  0  0  0
   37.6445  -21.6060   40.4639 C   0  0  0  0  0  0  0  0  0  0  0  0
   39.0010  -21.4734   40.4719 N   0  0  0  0  0  0  0  0  0  0  0  0
   39.4011  -21.0236   41.6836 C   0  0  0  0  0  0  0  0  0  0  0  0
   40.6483  -20.7271   42.2041 C   0  0  0  0  0  0  0  0  0  0  0  0
   40.7538  -20.2781   43.4964 C   0  0  0  0  0  0  0  0  0  0  0  0
   39.5999  -20.1368   44.2387 C   0  0  0  0  0  0  0  0  0  0  0  0
   38.3575  -20.4309   43.7233 C   0  0  0  0  0  0  0  0  0  0  0  0
   38.2552  -20.8769   42.4388 C   0  0  0  0  0  0  0  0  0  0  0  0
   36.8106  -22.0639   39.3517 C   0  0  0  0  0  0  0  0  0  0  0  0
   37.3145  -23.4610   38.9636 C   0  0  0  0  0  0  0  0  0  0  0  0
   37.1350  -21.1750   38.1523 C   0  0  0  0  0  0  0  0  0  0  0  0
   39.6604  -21.6733   39.6982 H   0  0  0  0  0  0  0  0  0  0  0  0
   30.1154  -24.0873   36.0515 C   0  0  0  0  0  0  0  0  0  0  0  0
   31.1247  -24.9036   36.8871 C   0  0  0  0  0  0  0  0  0  0  0  0
   32.4310  -24.2061   37.0895 C   0  0  0  0  0  0  0  0  0  0  0  0
   32.2221  -23.0066   37.8769 N   0  0  0  0  0  0  0  0  0  0  0  0
   31.0057  -22.2687   37.5591 C   0  0  0  0  0  0  0  0  0  0  0  0
   30.6510  -22.6743   36.1439 C   0  0  0  0  0  0  0  0  0  0  0  0
   28.8810  -24.2679   36.6786 N   0  0  0  0  0  0  0  0  0  0  0  0
   27.7041  -23.6730   36.3057 C   0  0  0  0  0  0  0  0  0  0  0  0
   26.9308  -23.1063   37.4717 C   0  0  0  0  0  0  0  0  0  0  0  0
   26.9302  -23.9110   38.5794 O   0  0  0  0  0  0  0  0  0  0  0  0
   28.2211  -24.2818   38.9682 C   0  0  0  0  0  0  0  0  0  0  0  0
   28.7932  -25.0878   37.8201 C   0  0  0  0  0  0  0  0  0  0  0  0
   31.3257  -24.0838   33.8282 C   0  0  0  0  0  0  0  0  0  0  0  0
   30.1116  -24.5517   34.6335 C   0  0  0  0  0  0  0  0  0  0  0  0
   30.0252  -26.0148   34.3775 C   0  0  0  0  0  0  0  0  0  0  0  0
   42.0530  -19.9562   44.0778 C   0  0  0  0  0  0  0  0  0  0  0  0
   43.0865  -19.6927   44.5235 N   0  0  0  0  0  0  0  0  0  0  0  0
 34 35  1  0  0  0
 35 36  1  0  0  0
 35 22  1  0  0  0
 22 28  1  0  0  0
 28 29  1  0  0  0
 29 30  1  0  0  0
 30 31  1  0  0  0
 31 32  1  0  0  0
 32 33  1  0  0  0
 22 23  1  0  0  0
 23 24  1  0  0  0
 24 25  1  0  0  0
 25  1  1  0  0  0
  1  2  2  0  0  0
  2  3  1  0  0  0
  3  4  2  0  0  0
  4  5  1  0  0  0
  5  6  2  0  0  0
  4  7  1  0  0  0
  7  8  2  0  0  0
  7  9  1  0  0  0
  9 10  2  0  0  0
 10 11  1  0  0  0
 11 12  1  0  0  0
 12 13  2  0  0  0
 13 14  1  0  0  0
 14 37  1  0  0  0
 37 38  3  0  0  0
 14 15  2  0  0  0
 15 16  1  0  0  0
 16 17  2  0  0  0
 10 18  1  0  0  0
 18 19  1  0  0  0
 18 20  1  0  0  0
 25 26  1  0  0  0
 26 27  1  0  0  0
 27 22  1  0  0  0
 33 28  1  0  0  0
  6  1  1  0  0  0
 17  9  1  0  0  0
 18  3  1  0  0  0
 17 12  1  0  0  0
 11 21  1  0  0  0
M  END
> <minimizedAffinity>
-4.36999

> <CNNscore>
0.5627794266

> <CNNaffinity>
5.3057732582

> <CNN_VS>
2.9859800339

> <CNNaffinity_variance>
0.1211297512

$$$$
[H]c1nc(N2C([H])([H])C([H])([H])C(N3C([H])([H])C([H])([H])OC([H])([H])C3([H])[H])(C([H])(C([H])([H])[H])C([H])([H])[H])C([H])([H])C2([H])[H])c([H])c2c1C(=O)c1c(n([H])c3c([H])c(C#N)c([H])c([H])c13)C2(C([H])([H])[H])C([H])([H])[H]


 38 43  0  0  0  0  0  0  0  0999 V2000
   38.7714  -21.8252   37.9389 C   0  0  0  0  0  0  0  0  0  0  0  0
   37.8541  -21.3259   38.8261 C   0  0  0  0  0  0  0  0  0  0  0  0
   36.6874  -22.0323   39.1498 C   0  0  0  0  0  0  0  0  0  0  0  0
   36.4953  -23.2470   38.5443 C   0  0  0  0  0  0  0  0  0  0  0  0
   37.4371  -23.7294   37.6515 C   0  0  0  0  0  0  0  0  0  0  0  0
   38.5408  -23.0204   37.3695 N   0  0  0  0  0  0  0  0  0  0  0  0
   35.3025  -24.0213   38.8450 C   0  0  0  0  0  0  0  0  0  0  0  0
   35.1161  -25.1458   38.2898 O   0  0  0  0  0  0  0  0  0  0  0  0
   34.3348  -23.4895   39.7852 C   0  0  0  0  0  0  0  0  0  0  0  0
   34.5722  -22.2680   40.3658 C   0  0  0  0  0  0  0  0  0  0  0  0
   33.5365  -21.9793   41.2033 N   0  0  0  0  0  0  0  0  0  0  0  0
   32.6384  -22.9909   41.1723 C   0  0  0  0  0  0  0  0  0  0  0  0
   31.4345  -23.1907   41.8242 C   0  0  0  0  0  0  0  0  0  0  0  0
   30.7211  -24.3395   41.5923 C   0  0  0  0  0  0  0  0  0  0  0  0
   31.2354  -25.2646   40.7078 C   0  0  0  0  0  0  0  0  0  0  0  0
   32.4330  -25.0683   40.0576 C   0  0  0  0  0  0  0  0  0  0  0  0
   33.1402  -23.9257   40.2896 C   0  0  0  0  0  0  0  0  0  0  0  0
   35.7517  -21.4414   40.1058 C   0  0  0  0  0  0  0  0  0  0  0  0
   36.4349  -21.2027   41.4595 C   0  0  0  0  0  0  0  0  0  0  0  0
   35.2485  -20.0680   39.6647 C   0  0  0  0  0  0  0  0  0  0  0  0
   33.4142  -21.1338   41.7895 H   0  0  0  0  0  0  0  0  0  0  0  0
   42.4569  -19.4828   37.2882 C   0  0  0  0  0  0  0  0  0  0  0  0
   41.0417  -18.9548   37.6070 C   0  0  0  0  0  0  0  0  0  0  0  0
   39.9496  -19.7836   37.0120 C   0  0  0  0  0  0  0  0  0  0  0  0
   39.9663  -21.1056   37.6073 N   0  0  0  0  0  0  0  0  0  0  0  0
   41.2960  -21.6543   37.8447 C   0  0  0  0  0  0  0  0  0  0  0  0
   42.2079  -20.9204   36.8841 C   0  0  0  0  0  0  0  0  0  0  0  0
   43.1816  -19.3444   38.4736 N   0  0  0  0  0  0  0  0  0  0  0  0
   44.3854  -19.9403   38.7449 C   0  0  0  0  0  0  0  0  0  0  0  0
   44.4423  -20.5636   40.1185 C   0  0  0  0  0  0  0  0  0  0  0  0
   43.8580  -19.8035   41.0961 O   0  0  0  0  0  0  0  0  0  0  0  0
   42.5506  -19.4305   40.7698 C   0  0  0  0  0  0  0  0  0  0  0  0
   42.6540  -18.5718   39.5261 C   0  0  0  0  0  0  0  0  0  0  0  0
   42.6942  -19.2734   34.7767 C   0  0  0  0  0  0  0  0  0  0  0  0
   43.0585  -18.7197   36.1558 C   0  0  0  0  0  0  0  0  0  0  0  0
   42.7767  -17.2614   36.0679 C   0  0  0  0  0  0  0  0  0  0  0  0
   29.4479  -24.5833   42.2625 C   0  0  0  0  0  0  0  0  0  0  0  0
   28.4371  -24.7907   42.7834 N   0  0  0  0  0  0  0  0  0  0  0  0
 34 35  1  0  0  0
 35 36  1  0  0  0
 35 22  1  0  0  0
 22 28  1  0  0  0
 28 29  1  0  0  0
 29 30  1  0  0  0
 30 31  1  0  0  0
 31 32  1  0  0  0
 32 33  1  0  0  0
 22 23  1  0  0  0
 23 24  1  0  0  0
 24 25  1  0  0  0
 25  1  1  0  0  0
  1  2  2  0  0  0
  2  3  1  0  0  0
  3  4  2  0  0  0
  4  5  1  0  0  0
  5  6  2  0  0  0
  4  7  1  0  0  0
  7  8  2  0  0  0
  7  9  1  0  0  0
  9 10  2  0  0  0
 10 11  1  0  0  0
 11 12  1  0  0  0
 12 13  2  0  0  0
 13 14  1  0  0  0
 14 37  1  0  0  0
 37 38  3  0  0  0
 14 15  2  0  0  0
 15 16  1  0  0  0
 16 17  2  0  0  0
 10 18  1  0  0  0
 18 19  1  0  0  0
 18 20  1  0  0  0
 25 26  1  0  0  0
 26 27  1  0  0  0
 27 22  1  0  0  0
 33 28  1  0  0  0
  6  1  1  0  0  0
 17  9  1  0  0  0
 18  3  1  0  0  0
 17 12  1  0  0  0
 11 21  1  0  0  0
M  END
> <minimizedAffinity>
-3.73129

> <CNNscore>
0.5277237892

> <CNNaffinity>
5.6314234734

> <CNN_VS>
2.9718360901

> <CNNaffinity_variance>
0.0547307320

$$$$
[H]c1nc(N2C([H])([H])C([H])([H])C(N3C([H])([H])C([H])([H])OC([H])([H])C3([H])[H])(C([H])(C([H])([H])[H])C([H])([H])[H])C([H])([H])C2([H])[H])c([H])c2c1C(=O)c1c(n([H])c3c([H])c(C#N)c([H])c([H])c13)C2(C([H])([H])[H])C([H])([H])[H]


 38 43  0  0  0  0  0  0  0  0999 V2000
   37.0599  -21.1451   39.0753 C   0  0  0  0  0  0  0  0  0  0  0  0
   37.8465  -22.2447   38.8515 C   0  0  0  0  0  0  0  0  0  0  0  0
   38.6022  -22.3791   37.6785 C   0  0  0  0  0  0  0  0  0  0  0  0
   38.5263  -21.3663   36.7580 C   0  0  0  0  0  0  0  0  0  0  0  0
   37.7241  -20.2658   37.0078 C   0  0  0  0  0  0  0  0  0  0  0  0
   37.0166  -20.1770   38.1443 N   0  0  0  0  0  0  0  0  0  0  0  0
   39.2902  -21.4548   35.5247 C   0  0  0  0  0  0  0  0  0  0  0  0
   39.2263  -20.5230   34.6673 O   0  0  0  0  0  0  0  0  0  0  0  0
   40.1220  -22.6199   35.2923 C   0  0  0  0  0  0  0  0  0  0  0  0
   40.1649  -23.6081   36.2447 C   0  0  0  0  0  0  0  0  0  0  0  0
   41.0036  -24.5906   35.8101 N   0  0  0  0  0  0  0  0  0  0  0  0
   41.5002  -24.2533   34.5975 C   0  0  0  0  0  0  0  0  0  0  0  0
   42.3770  -24.8907   33.7377 C   0  0  0  0  0  0  0  0  0  0  0  0
   42.7084  -24.2974   32.5457 C   0  0  0  0  0  0  0  0  0  0  0  0
   42.1495  -23.0730   32.2440 C   0  0  0  0  0  0  0  0  0  0  0  0
   41.2768  -22.4365   33.0976 C   0  0  0  0  0  0  0  0  0  0  0  0
   40.9488  -23.0282   34.2816 C   0  0  0  0  0  0  0  0  0  0  0  0
   39.4213  -23.5781   37.5049 C   0  0  0  0  0  0  0  0  0  0  0  0
   40.4542  -23.6998   38.6339 C   0  0  0  0  0  0  0  0  0  0  0  0
   38.6018  -24.8657   37.5729 C   0  0  0  0  0  0  0  0  0  0  0  0
   41.2512  -25.4714   36.2963 H   0  0  0  0  0  0  0  0  0  0  0  0
   34.5553  -21.0772   42.7105 C   0  0  0  0  0  0  0  0  0  0  0  0
   34.0911  -21.1638   41.2407 C   0  0  0  0  0  0  0  0  0  0  0  0
   34.9665  -20.4069   40.2950 C   0  0  0  0  0  0  0  0  0  0  0  0
   36.2875  -21.0043   40.2749 N   0  0  0  0  0  0  0  0  0  0  0  0
   36.7770  -21.4533   41.5726 C   0  0  0  0  0  0  0  0  0  0  0  0
   36.0018  -20.6463   42.5927 C   0  0  0  0  0  0  0  0  0  0  0  0
   34.3869  -22.3622   43.2303 N   0  0  0  0  0  0  0  0  0  0  0  0
   34.7863  -22.7765   44.4740 C   0  0  0  0  0  0  0  0  0  0  0  0
   35.4954  -24.1089   44.4557 C   0  0  0  0  0  0  0  0  0  0  0  0
   34.9254  -25.0281   43.6161 O   0  0  0  0  0  0  0  0  0  0  0  0
   34.7585  -24.5325   42.3194 C   0  0  0  0  0  0  0  0  0  0  0  0
   33.8007  -23.3644   42.4334 C   0  0  0  0  0  0  0  0  0  0  0  0
   34.3716  -18.6477   43.3973 C   0  0  0  0  0  0  0  0  0  0  0  0
   33.7643  -20.0511   43.4507 C   0  0  0  0  0  0  0  0  0  0  0  0
   32.3370  -19.8635   43.0742 C   0  0  0  0  0  0  0  0  0  0  0  0
   43.6299  -24.9410   31.6150 C   0  0  0  0  0  0  0  0  0  0  0  0
   44.3564  -25.4382   30.8659 N   0  0  0  0  0  0  0  0  0  0  0  0
 34 35  1  0  0  0
 35 36  1  0  0  0
 35 22  1  0  0  0
 22 28  1  0  0  0
 28 29  1  0  0  0
 29 30  1  0  0  0
 30 31  1  0  0  0
 31 32  1  0  0  0
 32 33  1  0  0  0
 22 23  1  0  0  0
 23 24  1  0  0  0
 24 25  1  0  0  0
 25  1  1  0  0  0
  1  2  2  0  0  0
  2  3  1  0  0  0
  3  4  2  0  0  0
  4  5  1  0  0  0
  5  6  2  0  0  0
  4  7  1  0  0  0
  7  8  2  0  0  0
  7  9  1  0  0  0
  9 10  2  0  0  0
 10 11  1  0  0  0
 11 12  1  0  0  0
 12 13  2  0  0  0
 13 14  1  0  0  0
 14 37  1  0  0  0
 37 38  3  0  0  0
 14 15  2  0  0  0
 15 16  1  0  0  0
 16 17  2  0  0  0
 10 18  1  0  0  0
 18 19  1  0  0  0
 18 20  1  0  0  0
 25 26  1  0  0  0
 26 27  1  0  0  0
 27 22  1  0  0  0
 33 28  1  0  0  0
  6  1  1  0  0  0
 17  9  1  0  0  0
 18  3  1  0  0  0
 17 12  1  0  0  0
 11 21  1  0  0  0
M  END
> <minimizedAffinity>
-3.57292

> <CNNscore>
0.5239322782

> <CNNaffinity>
5.5801892281

> <CNN_VS>
2.9236412048

> <CNNaffinity_variance>
0.2666196227

$$$$
[H]c1nc(N2C([H])([H])C([H])([H])C(N3C([H])([H])C([H])([H])OC([H])([H])C3([H])[H])(C([H])(C([H])([H])[H])C([H])([H])[H])C([H])([H])C2([H])[H])c([H])c2c1C(=O)c1c(n([H])c3c([H])c(C#N)c([H])c([H])c13)C2(C([H])([H])[H])C([H])([H])[H]


 38 43  0  0  0  0  0  0  0  0999 V2000
   32.7148  -23.0018   39.8073 C   0  0  0  0  0  0  0  0  0  0  0  0
   33.6887  -22.6731   38.9010 C   0  0  0  0  0  0  0  0  0  0  0  0
   34.9757  -22.2985   39.3112 C   0  0  0  0  0  0  0  0  0  0  0  0
   35.2273  -22.2724   40.6584 C   0  0  0  0  0  0  0  0  0  0  0  0
   34.2262  -22.6088   41.5537 C   0  0  0  0  0  0  0  0  0  0  0  0
   33.0072  -22.9618   41.1183 N   0  0  0  0  0  0  0  0  0  0  0  0
   36.5455  -21.8916   41.1380 C   0  0  0  0  0  0  0  0  0  0  0  0
   36.7875  -21.8644   42.3822 O   0  0  0  0  0  0  0  0  0  0  0  0
   37.5734  -21.5453   40.1754 C   0  0  0  0  0  0  0  0  0  0  0  0
   37.2726  -21.5867   38.8362 C   0  0  0  0  0  0  0  0  0  0  0  0
   38.3827  -21.2249   38.1329 N   0  0  0  0  0  0  0  0  0  0  0  0
   39.3904  -20.9519   38.9935 C   0  0  0  0  0  0  0  0  0  0  0  0
   40.6997  -20.5484   38.8002 C   0  0  0  0  0  0  0  0  0  0  0  0
   41.5126  -20.3426   39.8862 C   0  0  0  0  0  0  0  0  0  0  0  0
   40.9897  -20.5477   41.1460 C   0  0  0  0  0  0  0  0  0  0  0  0
   39.6873  -20.9491   41.3414 C   0  0  0  0  0  0  0  0  0  0  0  0
   38.8813  -21.1528   40.2605 C   0  0  0  0  0  0  0  0  0  0  0  0
   35.9674  -21.9617   38.2906 C   0  0  0  0  0  0  0  0  0  0  0  0
   36.2039  -23.1502   37.3483 C   0  0  0  0  0  0  0  0  0  0  0  0
   35.5146  -20.8179   37.3846 C   0  0  0  0  0  0  0  0  0  0  0  0
   38.4849  -21.1562   37.1042 H   0  0  0  0  0  0  0  0  0  0  0  0
   28.5621  -23.8101   38.5446 C   0  0  0  0  0  0  0  0  0  0  0  0
   29.0532  -23.2920   39.9135 C   0  0  0  0  0  0  0  0  0  0  0  0
   30.3817  -23.8453   40.3170 C   0  0  0  0  0  0  0  0  0  0  0  0
   31.3983  -23.3870   39.3903 N   0  0  0  0  0  0  0  0  0  0  0  0
   30.9819  -23.3475   37.9938 C   0  0  0  0  0  0  0  0  0  0  0  0
   29.8287  -24.3237   37.8934 C   0  0  0  0  0  0  0  0  0  0  0  0
   28.0052  -22.7009   37.9050 N   0  0  0  0  0  0  0  0  0  0  0  0
   28.3961  -22.2037   36.6892 C   0  0  0  0  0  0  0  0  0  0  0  0
   28.5495  -20.7021   36.6843 C   0  0  0  0  0  0  0  0  0  0  0  0
   27.5653  -20.0426   37.3706 O   0  0  0  0  0  0  0  0  0  0  0  0
   27.4103  -20.5253   38.6736 C   0  0  0  0  0  0  0  0  0  0  0  0
   26.9814  -21.9720   38.5402 C   0  0  0  0  0  0  0  0  0  0  0  0
   27.1371  -25.5698   37.4128 C   0  0  0  0  0  0  0  0  0  0  0  0
   27.5815  -24.9202   38.7250 C   0  0  0  0  0  0  0  0  0  0  0  0
   27.9679  -26.0583   39.6022 C   0  0  0  0  0  0  0  0  0  0  0  0
   42.8985  -19.9171   39.7193 C   0  0  0  0  0  0  0  0  0  0  0  0
   43.9910  -19.5684   39.5751 N   0  0  0  0  0  0  0  0  0  0  0  0
 34 35  1  0  0  0
 35 36  1  0  0  0
 35 22  1  0  0  0
 22 28  1  0  0  0
 28 29  1  0  0  0
 29 30  1  0  0  0
 30 31  1  0  0  0
 31 32  1  0  0  0
 32 33  1  0  0  0
 22 23  1  0  0  0
 23 24  1  0  0  0
 24 25  1  0  0  0
 25  1  1  0  0  0
  1  2  2  0  0  0
  2  3  1  0  0  0
  3  4  2  0  0  0
  4  5  1  0  0  0
  5  6  2  0  0  0
  4  7  1  0  0  0
  7  8  2  0  0  0
  7  9  1  0  0  0
  9 10  2  0  0  0
 10 11  1  0  0  0
 11 12  1  0  0  0
 12 13  2  0  0  0
 13 14  1  0  0  0
 14 37  1  0  0  0
 37 38  3  0  0  0
 14 15  2  0  0  0
 15 16  1  0  0  0
 16 17  2  0  0  0
 10 18  1  0  0  0
 18 19  1  0  0  0
 18 20  1  0  0  0
 25 26  1  0  0  0
 26 27  1  0  0  0
 27 22  1  0  0  0
 33 28  1  0  0  0
  6  1  1  0  0  0
 17  9  1  0  0  0
 18  3  1  0  0  0
 17 12  1  0  0  0
 11 21  1  0  0  0
M  END
> <minimizedAffinity>
-4.12859

> <CNNscore>
0.4956390262

> <CNNaffinity>
5.2930850983

> <CNN_VS>
2.6234595776

> <CNNaffinity_variance>
0.1738186181

$$$$
[H]c1nc(N2C([H])([H])C([H])([H])C(N3C([H])([H])C([H])([H])OC([H])([H])C3([H])[H])(C([H])(C([H])([H])[H])C([H])([H])[H])C([H])([H])C2([H])[H])c([H])c2c1C(=O)c1c(n([H])c3c([H])c(C#N)c([H])c([H])c13)C2(C([H])([H])[H])C([H])([H])[H]


 38 43  0  0  0  0  0  0  0  0999 V2000
   38.3978  -20.8167   38.3770 C   0  0  0  0  0  0  0  0  0  0  0  0
   37.4114  -21.6284   38.8730 C   0  0  0  0  0  0  0  0  0  0  0  0
   36.0973  -21.5649   38.3894 C   0  0  0  0  0  0  0  0  0  0  0  0
   35.8320  -20.6571   37.3972 C   0  0  0  0  0  0  0  0  0  0  0  0
   36.8460  -19.8483   36.9130 C   0  0  0  0  0  0  0  0  0  0  0  0
   38.0911  -19.9415   37.4043 N   0  0  0  0  0  0  0  0  0  0  0  0
   34.4859  -20.5504   36.8593 C   0  0  0  0  0  0  0  0  0  0  0  0
   34.2309  -19.7136   35.9416 O   0  0  0  0  0  0  0  0  0  0  0  0
   33.4453  -21.4120   37.3866 C   0  0  0  0  0  0  0  0  0  0  0  0
   33.7607  -22.3055   38.3805 C   0  0  0  0  0  0  0  0  0  0  0  0
   32.6346  -22.9981   38.7118 N   0  0  0  0  0  0  0  0  0  0  0  0
   31.6021  -22.5672   37.9508 C   0  0  0  0  0  0  0  0  0  0  0  0
   30.2694  -22.9344   37.8913 C   0  0  0  0  0  0  0  0  0  0  0  0
   29.4339  -22.3100   36.9999 C   0  0  0  0  0  0  0  0  0  0  0  0
   29.9583  -21.3276   36.1859 C   0  0  0  0  0  0  0  0  0  0  0  0
   31.2839  -20.9602   36.2430 C   0  0  0  0  0  0  0  0  0  0  0  0
   32.1123  -21.5822   37.1297 C   0  0  0  0  0  0  0  0  0  0  0  0
   35.0943  -22.4615   38.9628 C   0  0  0  0  0  0  0  0  0  0  0  0
   35.4982  -23.9288   38.7629 C   0  0  0  0  0  0  0  0  0  0  0  0
   34.9467  -22.2901   40.4737 C   0  0  0  0  0  0  0  0  0  0  0  0
   32.5376  -23.7433   39.4250 H   0  0  0  0  0  0  0  0  0  0  0  0
   42.4699  -21.3876   39.9848 C   0  0  0  0  0  0  0  0  0  0  0  0
   41.1333  -21.4131   40.7570 C   0  0  0  0  0  0  0  0  0  0  0  0
   40.1118  -20.4696   40.2092 C   0  0  0  0  0  0  0  0  0  0  0  0
   39.7430  -20.8809   38.8685 N   0  0  0  0  0  0  0  0  0  0  0  0
   40.8478  -21.3666   38.0506 C   0  0  0  0  0  0  0  0  0  0  0  0
   42.0933  -20.7583   38.6603 C   0  0  0  0  0  0  0  0  0  0  0  0
   42.8680  -22.7222   39.8858 N   0  0  0  0  0  0  0  0  0  0  0  0
   42.2547  -23.7834   40.4988 C   0  0  0  0  0  0  0  0  0  0  0  0
   43.2275  -24.7286   41.1612 C   0  0  0  0  0  0  0  0  0  0  0  0
   44.3567  -24.9670   40.4244 O   0  0  0  0  0  0  0  0  0  0  0  0
   44.9949  -23.7865   40.0319 C   0  0  0  0  0  0  0  0  0  0  0  0
   44.0151  -23.0531   39.1391 C   0  0  0  0  0  0  0  0  0  0  0  0
   43.4478  -19.0710   40.2765 C   0  0  0  0  0  0  0  0  0  0  0  0
   43.4713  -20.5418   40.6978 C   0  0  0  0  0  0  0  0  0  0  0  0
   43.4299  -20.5132   42.1848 C   0  0  0  0  0  0  0  0  0  0  0  0
   28.0230  -22.6720   36.9100 C   0  0  0  0  0  0  0  0  0  0  0  0
   26.9049  -22.9600   36.8562 N   0  0  0  0  0  0  0  0  0  0  0  0
 34 35  1  0  0  0
 35 36  1  0  0  0
 35 22  1  0  0  0
 22 28  1  0  0  0
 28 29  1  0  0  0
 29 30  1  0  0  0
 30 31  1  0  0  0
 31 32  1  0  0  0
 32 33  1  0  0  0
 22 23  1  0  0  0
 23 24  1  0  0  0
 24 25  1  0  0  0
 25  1  1  0  0  0
  1  2  2  0  0  0
  2  3  1  0  0  0
  3  4  2  0  0  0
  4  5  1  0  0  0
  5  6  2  0  0  0
  4  7  1  0  0  0
  7  8  2  0  0  0
  7  9  1  0  0  0
  9 10  2  0  0  0
 10 11  1  0  0  0
 11 12  1  0  0  0
 12 13  2  0  0  0
 13 14  1  0  0  0
 14 37  1  0  0  0
 37 38  3  0  0  0
 14 15  2  0  0  0
 15 16  1  0  0  0
 16 17  2  0  0  0
 10 18  1  0  0  0
 18 19  1  0  0  0
 18 20  1  0  0  0
 25 26  1  0  0  0
 26 27  1  0  0  0
 27 22  1  0  0  0
 33 28  1  0  0  0
  6  1  1  0  0  0
 17  9  1  0  0  0
 18  3  1  0  0  0
 17 12  1  0  0  0
 11 21  1  0  0  0
M  END
> <minimizedAffinity>
-4.05462

> <CNNscore>
0.4777103364

> <CNNaffinity>
5.4494075775

> <CNN_VS>
2.6032383442

> <CNNaffinity_variance>
0.1636344492

$$$$
[H]c1nc(N2C([H])([H])C([H])([H])C(N3C([H])([H])C([H])([H])OC([H])([H])C3([H])[H])(C([H])(C([H])([H])[H])C([H])([H])[H])C([H])([H])C2([H])[H])c([H])c2c1C(=O)c1c(n([H])c3c([H])c(C#N)c([H])c([H])c13)C2(C([H])([H])[H])C([H])([H])[H]


 38 43  0  0  0  0  0  0  0  0999 V2000
   36.7618  -22.8547   38.6337 C   0  0  0  0  0  0  0  0  0  0  0  0
   37.8976  -22.2964   38.1082 C   0  0  0  0  0  0  0  0  0  0  0  0
   38.4755  -22.7833   36.9276 C   0  0  0  0  0  0  0  0  0  0  0  0
   37.8609  -23.8437   36.3136 C   0  0  0  0  0  0  0  0  0  0  0  0
   36.7144  -24.3901   36.8647 C   0  0  0  0  0  0  0  0  0  0  0  0
   36.1940  -23.8932   37.9972 N   0  0  0  0  0  0  0  0  0  0  0  0
   38.4181  -24.3873   35.0861 C   0  0  0  0  0  0  0  0  0  0  0  0
   37.8569  -25.3680   34.5112 O   0  0  0  0  0  0  0  0  0  0  0  0
   39.6198  -23.7928   34.5331 C   0  0  0  0  0  0  0  0  0  0  0  0
   40.1985  -22.7318   35.1850 C   0  0  0  0  0  0  0  0  0  0  0  0
   41.3033  -22.3462   34.4862 N   0  0  0  0  0  0  0  0  0  0  0  0
   41.4459  -23.1382   33.3985 C   0  0  0  0  0  0  0  0  0  0  0  0
   42.3841  -23.1682   32.3820 C   0  0  0  0  0  0  0  0  0  0  0  0
   42.2742  -24.1056   31.3862 C   0  0  0  0  0  0  0  0  0  0  0  0
   41.2206  -24.9945   31.4345 C   0  0  0  0  0  0  0  0  0  0  0  0
   40.2857  -24.9671   32.4448 C   0  0  0  0  0  0  0  0  0  0  0  0
   40.3970  -24.0346   33.4334 C   0  0  0  0  0  0  0  0  0  0  0  0
   39.6870  -22.1393   36.4216 C   0  0  0  0  0  0  0  0  0  0  0  0
   39.4329  -20.6536   36.1311 C   0  0  0  0  0  0  0  0  0  0  0  0
   40.8306  -22.1582   37.4345 C   0  0  0  0  0  0  0  0  0  0  0  0
   41.9581  -21.5761   34.7133 H   0  0  0  0  0  0  0  0  0  0  0  0
   34.5994  -21.4936   42.2343 C   0  0  0  0  0  0  0  0  0  0  0  0
   34.3586  -21.0739   40.7682 C   0  0  0  0  0  0  0  0  0  0  0  0
   35.6088  -21.0242   39.9508 C   0  0  0  0  0  0  0  0  0  0  0  0
   36.1678  -22.3574   39.8400 N   0  0  0  0  0  0  0  0  0  0  0  0
   36.0826  -23.1607   41.0536 C   0  0  0  0  0  0  0  0  0  0  0  0
   35.9568  -22.1622   42.1851 C   0  0  0  0  0  0  0  0  0  0  0  0
   33.5514  -22.3605   42.5501 N   0  0  0  0  0  0  0  0  0  0  0  0
   32.4864  -22.6509   41.7381 C   0  0  0  0  0  0  0  0  0  0  0  0
   31.1618  -22.6125   42.4610 C   0  0  0  0  0  0  0  0  0  0  0  0
   31.1970  -23.1693   43.7114 O   0  0  0  0  0  0  0  0  0  0  0  0
   32.2155  -22.6320   44.5045 C   0  0  0  0  0  0  0  0  0  0  0  0
   33.5177  -22.9810   43.8138 C   0  0  0  0  0  0  0  0  0  0  0  0
   36.0549  -19.8767   43.5285 C   0  0  0  0  0  0  0  0  0  0  0  0
   34.6403  -20.2956   43.1228 C   0  0  0  0  0  0  0  0  0  0  0  0
   33.9962  -19.0445   42.6392 C   0  0  0  0  0  0  0  0  0  0  0  0
   43.2455  -24.1661   30.2987 C   0  0  0  0  0  0  0  0  0  0  0  0
   44.0029  -24.2223   29.4273 N   0  0  0  0  0  0  0  0  0  0  0  0
 34 35  1  0  0  0
 35 36  1  0  0  0
 35 22  1  0  0  0
 22 28  1  0  0  0
 28 29  1  0  0  0
 29 30  1  0  0  0
 30 31  1  0  0  0
 31 32  1  0  0  0
 32 33  1  0  0  0
 22 23  1  0  0  0
 23 24  1  0  0  0
 24 25  1  0  0  0
 25  1  1  0  0  0
  1  2  2  0  0  0
  2  3  1  0  0  0
  3  4  2  0  0  0
  4  5  1  0  0  0
  5  6  2  0  0  0
  4  7  1  0  0  0
  7  8  2  0  0  0
  7  9  1  0  0  0
  9 10  2  0  0  0
 10 11  1  0  0  0
 11 12  1  0  0  0
 12 13  2  0  0  0
 13 14  1  0  0  0
 14 37  1  0  0  0
 37 38  3  0  0  0
 14 15  2  0  0  0
 15 16  1  0  0  0
 16 17  2  0  0  0
 10 18  1  0  0  0
 18 19  1  0  0  0
 18 20  1  0  0  0
 25 26  1  0  0  0
 26 27  1  0  0  0
 27 22  1  0  0  0
 33 28  1  0  0  0
  6  1  1  0  0  0
 17  9  1  0  0  0
 18  3  1  0  0  0
 17 12  1  0  0  0
 11 21  1  0  0  0
M  END
> <minimizedAffinity>
-3.75420

> <CNNscore>
0.4773688018

> <CNNaffinity>
5.4018936157

> <CNN_VS>
2.5786955357

> <CNNaffinity_variance>
0.1010056362

$$$$
[H]OC(=O)c1c([H])c([H])nc([H])c1N([H])C([H])([H])C1([H])c2c([H])c([H])c(Sc3sc([H])c([H])c3[H])c([H])c2OC([H])([H])C1([H])[H]


 29 32  0  0  0  0  0  0  0  0999 V2000
   35.1917  -17.1846   35.4770 C   0  0  0  0  0  0  0  0  0  0  0  0
   36.7098  -17.2072   35.5591 C   0  0  0  0  0  0  0  0  0  0  0  0
   37.1499  -17.0688   36.9838 C   0  0  0  0  0  0  0  0  0  0  0  0
   36.5319  -15.9826   37.6055 O   0  0  0  0  0  0  0  0  0  0  0  0
   35.4385  -15.3137   37.0554 C   0  0  0  0  0  0  0  0  0  0  0  0
   35.0418  -14.0739   37.5728 C   0  0  0  0  0  0  0  0  0  0  0  0
   33.9627  -13.3895   37.0475 C   0  0  0  0  0  0  0  0  0  0  0  0
   33.2912  -13.9746   35.9939 C   0  0  0  0  0  0  0  0  0  0  0  0
   33.6822  -15.2128   35.4722 C   0  0  0  0  0  0  0  0  0  0  0  0
   34.7514  -15.8638   36.0122 C   0  0  0  0  0  0  0  0  0  0  0  0
   34.6764  -18.3155   36.3247 C   0  0  0  0  0  0  0  0  0  0  0  0
   34.0867  -19.3974   35.5401 N   0  0  0  0  0  0  0  0  0  0  0  0
   34.7091  -19.9543   34.9280 H   0  0  0  0  0  0  0  0  0  0  0  0
   32.1589  -20.7404   36.2746 C   0  0  0  0  0  0  0  0  0  0  0  0
   30.7661  -20.9532   36.1607 C   0  0  0  0  0  0  0  0  0  0  0  0
   29.9705  -20.1616   35.3869 C   0  0  0  0  0  0  0  0  0  0  0  0
   30.5204  -19.1536   34.7142 N   0  0  0  0  0  0  0  0  0  0  0  0
   31.8331  -18.9071   34.7847 C   0  0  0  0  0  0  0  0  0  0  0  0
   32.6942  -19.6913   35.5659 C   0  0  0  0  0  0  0  0  0  0  0  0
   32.7426  -21.7980   38.3320 O   0  0  0  0  0  0  0  0  0  0  0  0
   32.9288  -21.5922   37.1367 C   0  0  0  0  0  0  0  0  0  0  0  0
   34.0261  -22.2813   36.5778 O   0  0  0  0  0  0  0  0  0  0  0  0
   34.9758  -22.0627   36.8283 H   0  0  0  0  0  0  0  0  0  0  0  0
   33.5252  -11.8274   37.7580 S   0  0  0  0  0  0  0  0  0  0  0  0
   31.7340  -11.6646   37.9165 C   0  0  0  0  0  0  0  0  0  0  0  0
   30.9278  -10.7387   37.3024 C   0  0  0  0  0  0  0  0  0  0  0  0
   29.6097  -10.8063   37.5698 C   0  0  0  0  0  0  0  0  0  0  0  0
   29.1934  -11.7906   38.4288 C   0  0  0  0  0  0  0  0  0  0  0  0
   30.6409  -12.5858   38.8343 S   0  0  0  0  0  0  0  0  0  0  0  0
 20 21  2  0  0  0
 21 22  1  0  0  0
 21 14  1  0  0  0
 14 15  2  0  0  0
 15 16  1  0  0  0
 16 17  2  0  0  0
 17 18  1  0  0  0
 18 19  2  0  0  0
 19 12  1  0  0  0
 12 11  1  0  0  0
 11  1  1  0  0  0
  1  2  1  0  0  0
  2  3  1  0  0  0
  3  4  1  0  0  0
  4  5  1  0  0  0
  5  6  2  0  0  0
  6  7  1  0  0  0
  7 24  1  0  0  0
 24 25  1  0  0  0
 25 26  2  0  0  0
 26 27  1  0  0  0
 27 28  2  0  0  0
 28 29  1  0  0  0
  7  8  2  0  0  0
  8  9  1  0  0  0
  9 10  2  0  0  0
 19 14  1  0  0  0
 10  1  1  0  0  0
 10  5  1  0  0  0
 29 25  1  0  0  0
 22 23  1  0  0  0
 12 13  1  0  0  0
M  END
> <minimizedAffinity>
-7.45315

> <CNNscore>
0.4163956642

> <CNNaffinity>
5.5343713760

> <CNN_VS>
2.3044881821

> <CNNaffinity_variance>
0.5979986787

$$$$
[H]OC(=O)c1c([H])c([H])nc([H])c1N([H])C([H])([H])C1([H])c2c([H])c([H])c(Sc3sc([H])c([H])c3[H])c([H])c2OC([H])([H])C1([H])[H]


 29 32  0  0  0  0  0  0  0  0999 V2000
   36.1583  -17.8206   35.6920 C   0  0  0  0  0  0  0  0  0  0  0  0
   35.0062  -18.7991   35.5273 C   0  0  0  0  0  0  0  0  0  0  0  0
   34.0025  -18.2534   34.5592 C   0  0  0  0  0  0  0  0  0  0  0  0
   33.6371  -16.9464   34.8854 O   0  0  0  0  0  0  0  0  0  0  0  0
   34.3384  -16.1692   35.8074 C   0  0  0  0  0  0  0  0  0  0  0  0
   33.7734  -14.9866   36.3015 C   0  0  0  0  0  0  0  0  0  0  0  0
   34.4455  -14.1976   37.2151 C   0  0  0  0  0  0  0  0  0  0  0  0
   35.6944  -14.6199   37.6217 C   0  0  0  0  0  0  0  0  0  0  0  0
   36.2646  -15.8003   37.1321 C   0  0  0  0  0  0  0  0  0  0  0  0
   35.5764  -16.5575   36.2311 C   0  0  0  0  0  0  0  0  0  0  0  0
   36.7655  -17.6045   34.3328 C   0  0  0  0  0  0  0  0  0  0  0  0
   37.5110  -18.7631   33.8472 N   0  0  0  0  0  0  0  0  0  0  0  0
   37.0074  -19.4663   33.2779 H   0  0  0  0  0  0  0  0  0  0  0  0
   39.3160  -19.6934   35.2386 C   0  0  0  0  0  0  0  0  0  0  0  0
   40.7111  -19.7680   35.4539 C   0  0  0  0  0  0  0  0  0  0  0  0
   41.6079  -19.1578   34.6282 C   0  0  0  0  0  0  0  0  0  0  0  0
   41.1583  -18.4674   33.5832 N   0  0  0  0  0  0  0  0  0  0  0  0
   39.8486  -18.3630   33.3325 C   0  0  0  0  0  0  0  0  0  0  0  0
   38.8860  -18.9715   34.1508 C   0  0  0  0  0  0  0  0  0  0  0  0
   38.3561  -20.2632   37.3472 O   0  0  0  0  0  0  0  0  0  0  0  0
   38.4322  -20.3913   36.1292 C   0  0  0  0  0  0  0  0  0  0  0  0
   37.5419  -21.3345   35.5731 O   0  0  0  0  0  0  0  0  0  0  0  0
   37.6350  -22.3213   35.7465 H   0  0  0  0  0  0  0  0  0  0  0  0
   33.6624  -12.7174   37.7913 S   0  0  0  0  0  0  0  0  0  0  0  0
   34.3458  -11.2601   36.9733 C   0  0  0  0  0  0  0  0  0  0  0  0
   35.3415  -11.2296   36.0289 C   0  0  0  0  0  0  0  0  0  0  0  0
   35.6932  -10.0196   35.5537 C   0  0  0  0  0  0  0  0  0  0  0  0
   35.0270   -8.9309   36.0547 C   0  0  0  0  0  0  0  0  0  0  0  0
   33.9391   -9.6218   37.1643 S   0  0  0  0  0  0  0  0  0  0  0  0
 20 21  2  0  0  0
 21 22  1  0  0  0
 21 14  1  0  0  0
 14 15  2  0  0  0
 15 16  1  0  0  0
 16 17  2  0  0  0
 17 18  1  0  0  0
 18 19  2  0  0  0
 19 12  1  0  0  0
 12 11  1  0  0  0
 11  1  1  0  0  0
  1  2  1  0  0  0
  2  3  1  0  0  0
  3  4  1  0  0  0
  4  5  1  0  0  0
  5  6  2  0  0  0
  6  7  1  0  0  0
  7 24  1  0  0  0
 24 25  1  0  0  0
 25 26  2  0  0  0
 26 27  1  0  0  0
 27 28  2  0  0  0
 28 29  1  0  0  0
  7  8  2  0  0  0
  8  9  1  0  0  0
  9 10  2  0  0  0
 19 14  1  0  0  0
 10  1  1  0  0  0
 10  5  1  0  0  0
 29 25  1  0  0  0
 22 23  1  0  0  0
 12 13  1  0  0  0
M  END
> <minimizedAffinity>
-6.51265

> <CNNscore>
0.3420720696

> <CNNaffinity>
5.7188043594

> <CNN_VS>
1.9562432766

> <CNNaffinity_variance>
0.1240267381

$$$$
[H]OC(=O)c1c([H])c([H])nc([H])c1N([H])C([H])([H])C1([H])c2c([H])c([H])c(Sc3sc([H])c([H])c3[H])c([H])c2OC([H])([H])C1([H])[H]


 29 32  0  0  0  0  0  0  0  0999 V2000
   32.2749  -20.8929   36.1046 C   0  0  0  0  0  0  0  0  0  0  0  0
   30.8946  -20.3006   35.8686 C   0  0  0  0  0  0  0  0  0  0  0  0
   30.8458  -19.6269   34.5321 C   0  0  0  0  0  0  0  0  0  0  0  0
   31.9136  -18.7434   34.3667 O   0  0  0  0  0  0  0  0  0  0  0  0
   33.0229  -18.7257   35.2122 C   0  0  0  0  0  0  0  0  0  0  0  0
   33.9175  -17.6485   35.1732 C   0  0  0  0  0  0  0  0  0  0  0  0
   35.0242  -17.6050   35.9991 C   0  0  0  0  0  0  0  0  0  0  0  0
   35.2138  -18.6634   36.8635 C   0  0  0  0  0  0  0  0  0  0  0  0
   34.3240  -19.7425   36.9077 C   0  0  0  0  0  0  0  0  0  0  0  0
   33.2408  -19.7565   36.0798 C   0  0  0  0  0  0  0  0  0  0  0  0
   32.5469  -21.8639   34.9884 C   0  0  0  0  0  0  0  0  0  0  0  0
   32.4950  -23.2594   35.4173 N   0  0  0  0  0  0  0  0  0  0  0  0
   33.3861  -23.7360   35.6434 H   0  0  0  0  0  0  0  0  0  0  0  0
   30.6011  -24.1858   36.6879 C   0  0  0  0  0  0  0  0  0  0  0  0
   29.4344  -24.9824   36.6402 C   0  0  0  0  0  0  0  0  0  0  0  0
   28.9808  -25.5389   35.4814 C   0  0  0  0  0  0  0  0  0  0  0  0
   29.6570  -25.3275   34.3549 N   0  0  0  0  0  0  0  0  0  0  0  0
   30.7679  -24.5827   34.3424 C   0  0  0  0  0  0  0  0  0  0  0  0
   31.2758  -23.9885   35.5066 C   0  0  0  0  0  0  0  0  0  0  0  0
   32.0438  -23.8042   38.5494 O   0  0  0  0  0  0  0  0  0  0  0  0
   30.9994  -23.6021   37.9377 C   0  0  0  0  0  0  0  0  0  0  0  0
   30.1142  -22.6929   38.5553 O   0  0  0  0  0  0  0  0  0  0  0  0
   29.6419  -22.9113   39.4165 H   0  0  0  0  0  0  0  0  0  0  0  0
   36.1070  -16.2080   35.8887 S   0  0  0  0  0  0  0  0  0  0  0  0
   35.2540  -14.6864   36.3546 C   0  0  0  0  0  0  0  0  0  0  0  0
   33.9052  -14.4393   36.2922 C   0  0  0  0  0  0  0  0  0  0  0  0
   33.4897  -13.2232   36.6948 C   0  0  0  0  0  0  0  0  0  0  0  0
   34.4485  -12.3446   37.1293 C   0  0  0  0  0  0  0  0  0  0  0  0
   35.8889  -13.2335   36.9645 S   0  0  0  0  0  0  0  0  0  0  0  0
 20 21  2  0  0  0
 21 22  1  0  0  0
 21 14  1  0  0  0
 14 15  2  0  0  0
 15 16  1  0  0  0
 16 17  2  0  0  0
 17 18  1  0  0  0
 18 19  2  0  0  0
 19 12  1  0  0  0
 12 11  1  0  0  0
 11  1  1  0  0  0
  1  2  1  0  0  0
  2  3  1  0  0  0
  3  4  1  0  0  0
  4  5  1  0  0  0
  5  6  2  0  0  0
  6  7  1  0  0  0
  7 24  1  0  0  0
 24 25  1  0  0  0
 25 26  2  0  0  0
 26 27  1  0  0  0
 27 28  2  0  0  0
 28 29  1  0  0  0
  7  8  2  0  0  0
  8  9  1  0  0  0
  9 10  2  0  0  0
 19 14  1  0  0  0
 10  1  1  0  0  0
 10  5  1  0  0  0
 29 25  1  0  0  0
 22 23  1  0  0  0
 12 13  1  0  0  0
M  END
> <minimizedAffinity>
-6.04861

> <CNNscore>
0.3370138109

> <CNNaffinity>
5.0309267044

> <CNN_VS>
1.6954917908

> <CNNaffinity_variance>
0.2956142724

$$$$
[H]OC(=O)c1c([H])c([H])nc([H])c1N([H])C([H])([H])C1([H])c2c([H])c([H])c(Sc3sc([H])c([H])c3[H])c([H])c2OC([H])([H])C1([H])[H]


 29 32  0  0  0  0  0  0  0  0999 V2000
   36.0142  -17.9138   35.9259 C   0  0  0  0  0  0  0  0  0  0  0  0
   36.1605  -18.0032   37.4367 C   0  0  0  0  0  0  0  0  0  0  0  0
   35.8872  -19.4015   37.8979 C   0  0  0  0  0  0  0  0  0  0  0  0
   34.6825  -19.8825   37.3827 O   0  0  0  0  0  0  0  0  0  0  0  0
   33.9924  -19.2503   36.3483 C   0  0  0  0  0  0  0  0  0  0  0  0
   32.6682  -19.6096   36.0663 C   0  0  0  0  0  0  0  0  0  0  0  0
   31.9611  -19.0003   35.0477 C   0  0  0  0  0  0  0  0  0  0  0  0
   32.6097  -18.0244   34.3195 C   0  0  0  0  0  0  0  0  0  0  0  0
   33.9324  -17.6607   34.5959 C   0  0  0  0  0  0  0  0  0  0  0  0
   34.6039  -18.2806   35.6077 C   0  0  0  0  0  0  0  0  0  0  0  0
   36.9822  -18.8926   35.3194 C   0  0  0  0  0  0  0  0  0  0  0  0
   38.3763  -18.4768   35.4516 N   0  0  0  0  0  0  0  0  0  0  0  0
   38.5795  -17.5988   35.9616 H   0  0  0  0  0  0  0  0  0  0  0  0
   40.0288  -20.3006   35.4998 C   0  0  0  0  0  0  0  0  0  0  0  0
   41.1315  -20.9016   34.8509 C   0  0  0  0  0  0  0  0  0  0  0  0
   41.6169  -20.4396   33.6638 C   0  0  0  0  0  0  0  0  0  0  0  0
   41.0357  -19.3869   33.0937 N   0  0  0  0  0  0  0  0  0  0  0  0
   39.9897  -18.7788   33.6641 C   0  0  0  0  0  0  0  0  0  0  0  0
   39.4529  -19.2149   34.8841 C   0  0  0  0  0  0  0  0  0  0  0  0
   39.3514  -20.2719   37.7872 O   0  0  0  0  0  0  0  0  0  0  0  0
   39.5491  -20.8634   36.7305 C   0  0  0  0  0  0  0  0  0  0  0  0
   39.2654  -22.2455   36.7597 O   0  0  0  0  0  0  0  0  0  0  0  0
   39.8182  -22.8913   37.2980 H   0  0  0  0  0  0  0  0  0  0  0  0
   30.2910  -19.5113   34.7548 S   0  0  0  0  0  0  0  0  0  0  0  0
   29.8941  -21.0030   35.6915 C   0  0  0  0  0  0  0  0  0  0  0  0
   28.9711  -21.1282   36.6997 C   0  0  0  0  0  0  0  0  0  0  0  0
   28.8429  -22.3460   37.2600 C   0  0  0  0  0  0  0  0  0  0  0  0
   29.6434  -23.3476   36.7743 C   0  0  0  0  0  0  0  0  0  0  0  0
   30.5435  -22.5673   35.5607 S   0  0  0  0  0  0  0  0  0  0  0  0
 20 21  2  0  0  0
 21 22  1  0  0  0
 21 14  1  0  0  0
 14 15  2  0  0  0
 15 16  1  0  0  0
 16 17  2  0  0  0
 17 18  1  0  0  0
 18 19  2  0  0  0
 19 12  1  0  0  0
 12 11  1  0  0  0
 11  1  1  0  0  0
  1  2  1  0  0  0
  2  3  1  0  0  0
  3  4  1  0  0  0
  4  5  1  0  0  0
  5  6  2  0  0  0
  6  7  1  0  0  0
  7 24  1  0  0  0
 24 25  1  0  0  0
 25 26  2  0  0  0
 26 27  1  0  0  0
 27 28  2  0  0  0
 28 29  1  0  0  0
  7  8  2  0  0  0
  8  9  1  0  0  0
  9 10  2  0  0  0
 19 14  1  0  0  0
 10  1  1  0  0  0
 10  5  1  0  0  0
 29 25  1  0  0  0
 22 23  1  0  0  0
 12 13  1  0  0  0
M  END
> <minimizedAffinity>
-5.50155

> <CNNscore>
0.3255437315

> <CNNaffinity>
4.7801866531

> <CNN_VS>
1.5561598539

> <CNNaffinity_variance>
0.5598355532

$$$$
[H]OC(=O)c1c([H])c([H])nc([H])c1N([H])C([H])([H])C1([H])c2c([H])c([H])c(Sc3sc([H])c([H])c3[H])c([H])c2OC([H])([H])C1([H])[H]


 29 32  0  0  0  0  0  0  0  0999 V2000
   35.2323  -16.6928   35.6501 C   0  0  0  0  0  0  0  0  0  0  0  0
   36.7508  -16.6149   35.6599 C   0  0  0  0  0  0  0  0  0  0  0  0
   37.2475  -16.4373   37.0614 C   0  0  0  0  0  0  0  0  0  0  0  0
   36.5891  -15.3896   37.7073 O   0  0  0  0  0  0  0  0  0  0  0  0
   35.4291  -14.7982   37.2070 C   0  0  0  0  0  0  0  0  0  0  0  0
   34.9762  -13.5834   37.7375 C   0  0  0  0  0  0  0  0  0  0  0  0
   33.8306  -12.9754   37.2612 C   0  0  0  0  0  0  0  0  0  0  0  0
   33.1503  -13.6111   36.2432 C   0  0  0  0  0  0  0  0  0  0  0  0
   33.5972  -14.8248   35.7088 C   0  0  0  0  0  0  0  0  0  0  0  0
   34.7314  -15.4000   36.2001 C   0  0  0  0  0  0  0  0  0  0  0  0
   34.8335  -17.8489   36.5262 C   0  0  0  0  0  0  0  0  0  0  0  0
   35.6604  -19.0355   36.3210 N   0  0  0  0  0  0  0  0  0  0  0  0
   35.9409  -19.2760   35.3536 H   0  0  0  0  0  0  0  0  0  0  0  0
   37.1472  -20.7267   37.3156 C   0  0  0  0  0  0  0  0  0  0  0  0
   37.3991  -21.5554   38.4326 C   0  0  0  0  0  0  0  0  0  0  0  0
   36.6156  -21.5304   39.5479 C   0  0  0  0  0  0  0  0  0  0  0  0
   35.5772  -20.6993   39.5898 N   0  0  0  0  0  0  0  0  0  0  0  0
   35.2919  -19.8936   38.5609 C   0  0  0  0  0  0  0  0  0  0  0  0
   36.0662  -19.8809   37.3918 C   0  0  0  0  0  0  0  0  0  0  0  0
   38.5061  -21.7858   35.6653 O   0  0  0  0  0  0  0  0  0  0  0  0
   38.0361  -20.7808   36.1894 C   0  0  0  0  0  0  0  0  0  0  0  0
   38.4308  -19.5614   35.5988 O   0  0  0  0  0  0  0  0  0  0  0  0
   39.3774  -19.2248   35.6542 H   0  0  0  0  0  0  0  0  0  0  0  0
   33.3248  -11.4404   37.9851 S   0  0  0  0  0  0  0  0  0  0  0  0
   33.9299  -10.0376   37.0227 C   0  0  0  0  0  0  0  0  0  0  0  0
   33.3861   -8.7788   36.9597 C   0  0  0  0  0  0  0  0  0  0  0  0
   34.0107   -7.8845   36.1700 C   0  0  0  0  0  0  0  0  0  0  0  0
   35.1298   -8.3109   35.5024 C   0  0  0  0  0  0  0  0  0  0  0  0
   35.2761   -9.9329   35.9920 S   0  0  0  0  0  0  0  0  0  0  0  0
 20 21  2  0  0  0
 21 22  1  0  0  0
 21 14  1  0  0  0
 14 15  2  0  0  0
 15 16  1  0  0  0
 16 17  2  0  0  0
 17 18  1  0  0  0
 18 19  2  0  0  0
 19 12  1  0  0  0
 12 11  1  0  0  0
 11  1  1  0  0  0
  1  2  1  0  0  0
  2  3  1  0  0  0
  3  4  1  0  0  0
  4  5  1  0  0  0
  5  6  2  0  0  0
  6  7  1  0  0  0
  7 24  1  0  0  0
 24 25  1  0  0  0
 25 26  2  0  0  0
 26 27  1  0  0  0
 27 28  2  0  0  0
 28 29  1  0  0  0
  7  8  2  0  0  0
  8  9  1  0  0  0
  9 10  2  0  0  0
 19 14  1  0  0  0
 10  1  1  0  0  0
 10  5  1  0  0  0
 29 25  1  0  0  0
 22 23  1  0  0  0
 12 13  1  0  0  0
M  END
> <minimizedAffinity>
-6.02038

> <CNNscore>
0.2785820067

> <CNNaffinity>
5.3221879005

> <CNN_VS>
1.4826657772

> <CNNaffinity_variance>
0.1588362902

$$$$
[H]OC(=O)c1c([H])c([H])nc([H])c1N([H])C([H])([H])C1([H])c2c([H])c([H])c(Sc3sc([H])c([H])c3[H])c([H])c2OC([H])([H])C1([H])[H]


 29 32  0  0  0  0  0  0  0  0999 V2000
   35.6899  -18.1288   35.7233 C   0  0  0  0  0  0  0  0  0  0  0  0
   34.4057  -18.9311   35.8615 C   0  0  0  0  0  0  0  0  0  0  0  0
   33.3562  -18.3838   34.9441 C   0  0  0  0  0  0  0  0  0  0  0  0
   33.2192  -17.0026   35.0919 O   0  0  0  0  0  0  0  0  0  0  0  0
   34.1424  -16.2172   35.7823 C   0  0  0  0  0  0  0  0  0  0  0  0
   33.8169  -14.9023   36.1388 C   0  0  0  0  0  0  0  0  0  0  0  0
   34.7119  -14.1021   36.8225 C   0  0  0  0  0  0  0  0  0  0  0  0
   35.9382  -14.6484   37.1404 C   0  0  0  0  0  0  0  0  0  0  0  0
   36.2698  -15.9613   36.7873 C   0  0  0  0  0  0  0  0  0  0  0  0
   35.3650  -16.7261   36.1126 C   0  0  0  0  0  0  0  0  0  0  0  0
   36.1203  -18.2093   34.2841 C   0  0  0  0  0  0  0  0  0  0  0  0
   37.0141  -19.3331   34.0152 N   0  0  0  0  0  0  0  0  0  0  0  0
   36.6053  -20.2028   33.6293 H   0  0  0  0  0  0  0  0  0  0  0  0
   38.9717  -19.8047   35.4311 C   0  0  0  0  0  0  0  0  0  0  0  0
   40.3640  -19.6312   35.6029 C   0  0  0  0  0  0  0  0  0  0  0  0
   41.1342  -18.9797   34.6859 C   0  0  0  0  0  0  0  0  0  0  0  0
   40.5591  -18.4887   33.5909 N   0  0  0  0  0  0  0  0  0  0  0  0
   39.2455  -18.6232   33.3778 C   0  0  0  0  0  0  0  0  0  0  0  0
   38.4099  -19.2844   34.2895 C   0  0  0  0  0  0  0  0  0  0  0  0
   38.2801  -20.3881   37.6386 O   0  0  0  0  0  0  0  0  0  0  0  0
   38.2298  -20.5331   36.4212 C   0  0  0  0  0  0  0  0  0  0  0  0
   37.3372  -21.5319   35.9770 O   0  0  0  0  0  0  0  0  0  0  0  0
   37.5027  -22.5092   36.1503 H   0  0  0  0  0  0  0  0  0  0  0  0
   34.2241  -12.4508   37.2366 S   0  0  0  0  0  0  0  0  0  0  0  0
   32.5557  -12.4196   37.9260 C   0  0  0  0  0  0  0  0  0  0  0  0
   32.1188  -13.0420   39.0688 C   0  0  0  0  0  0  0  0  0  0  0  0
   30.8219  -12.8792   39.3930 C   0  0  0  0  0  0  0  0  0  0  0  0
   30.0575  -12.1090   38.5548 C   0  0  0  0  0  0  0  0  0  0  0  0
   31.1614  -11.6389   37.3496 S   0  0  0  0  0  0  0  0  0  0  0  0
 20 21  2  0  0  0
 21 22  1  0  0  0
 21 14  1  0  0  0
 14 15  2  0  0  0
 15 16  1  0  0  0
 16 17  2  0  0  0
 17 18  1  0  0  0
 18 19  2  0  0  0
 19 12  1  0  0  0
 12 11  1  0  0  0
 11  1  1  0  0  0
  1  2  1  0  0  0
  2  3  1  0  0  0
  3  4  1  0  0  0
  4  5  1  0  0  0
  5  6  2  0  0  0
  6  7  1  0  0  0
  7 24  1  0  0  0
 24 25  1  0  0  0
 25 26  2  0  0  0
 26 27  1  0  0  0
 27 28  2  0  0  0
 28 29  1  0  0  0
  7  8  2  0  0  0
  8  9  1  0  0  0
  9 10  2  0  0  0
 19 14  1  0  0  0
 10  1  1  0  0  0
 10  5  1  0  0  0
 29 25  1  0  0  0
 22 23  1  0  0  0
 12 13  1  0  0  0
M  END
> <minimizedAffinity>
-7.45346

> <CNNscore>
0.2748719156

> <CNNaffinity>
5.3846735954

> <CNN_VS>
1.4800955057

> <CNNaffinity_variance>
0.3565832973

$$$$
[H]OC(=O)c1c([H])c([H])nc([H])c1N([H])C([H])([H])C1([H])c2c([H])c([H])c(Sc3sc([H])c([H])c3[H])c([H])c2OC([H])([H])C1([H])[H]


 29 32  0  0  0  0  0  0  0  0999 V2000
   33.2151  -19.2027   35.0474 C   0  0  0  0  0  0  0  0  0  0  0  0
   32.0748  -19.5775   34.1141 C   0  0  0  0  0  0  0  0  0  0  0  0
   30.7873  -19.6435   34.8760 C   0  0  0  0  0  0  0  0  0  0  0  0
   30.9108  -20.4345   36.0193 O   0  0  0  0  0  0  0  0  0  0  0  0
   32.1422  -20.8511   36.5253 C   0  0  0  0  0  0  0  0  0  0  0  0
   32.1968  -21.8616   37.4939 C   0  0  0  0  0  0  0  0  0  0  0  0
   33.4024  -22.2936   38.0125 C   0  0  0  0  0  0  0  0  0  0  0  0
   34.5498  -21.6912   37.5393 C   0  0  0  0  0  0  0  0  0  0  0  0
   34.5023  -20.6812   36.5719 C   0  0  0  0  0  0  0  0  0  0  0  0
   33.2971  -20.2765   36.0794 C   0  0  0  0  0  0  0  0  0  0  0  0
   32.8738  -17.8755   35.6677 C   0  0  0  0  0  0  0  0  0  0  0  0
   33.6484  -16.7677   35.1138 N   0  0  0  0  0  0  0  0  0  0  0  0
   33.6442  -16.6319   34.0873 H   0  0  0  0  0  0  0  0  0  0  0  0
   35.7144  -16.1719   36.3122 C   0  0  0  0  0  0  0  0  0  0  0  0
   36.3459  -15.2438   37.1713 C   0  0  0  0  0  0  0  0  0  0  0  0
   35.7194  -14.1147   37.6083 C   0  0  0  0  0  0  0  0  0  0  0  0
   34.4709  -13.8750   37.2152 N   0  0  0  0  0  0  0  0  0  0  0  0
   33.8251  -14.7196   36.4036 C   0  0  0  0  0  0  0  0  0  0  0  0
   34.4247  -15.8941   35.9264 C   0  0  0  0  0  0  0  0  0  0  0  0
   37.0025  -18.1646   36.5614 O   0  0  0  0  0  0  0  0  0  0  0  0
   36.4482  -17.3214   35.8633 C   0  0  0  0  0  0  0  0  0  0  0  0
   36.5625  -17.5317   34.4724 O   0  0  0  0  0  0  0  0  0  0  0  0
   37.4418  -17.4442   33.9912 H   0  0  0  0  0  0  0  0  0  0  0  0
   33.3863  -23.5758   39.2339 S   0  0  0  0  0  0  0  0  0  0  0  0
   31.7633  -24.3611   39.3302 C   0  0  0  0  0  0  0  0  0  0  0  0
   31.3102  -25.4226   38.5872 C   0  0  0  0  0  0  0  0  0  0  0  0
   30.0548  -25.8447   38.8310 C   0  0  0  0  0  0  0  0  0  0  0  0
   29.3451  -25.1781   39.7963 C   0  0  0  0  0  0  0  0  0  0  0  0
   30.4407  -23.9923   40.3305 S   0  0  0  0  0  0  0  0  0  0  0  0
 20 21  2  0  0  0
 21 22  1  0  0  0
 21 14  1  0  0  0
 14 15  2  0  0  0
 15 16  1  0  0  0
 16 17  2  0  0  0
 17 18  1  0  0  0
 18 19  2  0  0  0
 19 12  1  0  0  0
 12 11  1  0  0  0
 11  1  1  0  0  0
  1  2  1  0  0  0
  2  3  1  0  0  0
  3  4  1  0  0  0
  4  5  1  0  0  0
  5  6  2  0  0  0
  6  7  1  0  0  0
  7 24  1  0  0  0
 24 25  1  0  0  0
 25 26  2  0  0  0
 26 27  1  0  0  0
 27 28  2  0  0  0
 28 29  1  0  0  0
  7  8  2  0  0  0
  8  9  1  0  0  0
  9 10  2  0  0  0
 19 14  1  0  0  0
 10  1  1  0  0  0
 10  5  1  0  0  0
 29 25  1  0  0  0
 22 23  1  0  0  0
 12 13  1  0  0  0
M  END
> <minimizedAffinity>
-5.36364

> <CNNscore>
0.2577965260

> <CNNaffinity>
4.8556976318

> <CNN_VS>
1.2517819405

> <CNNaffinity_variance>
0.5765634179

$$$$
[H]OC(=O)c1c([H])c([H])nc([H])c1N([H])C([H])([H])C1([H])c2c([H])c([H])c(Sc3sc([H])c([H])c3[H])c([H])c2OC([H])([H])C1([H])[H]


 29 32  0  0  0  0  0  0  0  0999 V2000
   36.4391  -17.9031   36.5576 C   0  0  0  0  0  0  0  0  0  0  0  0
   35.2158  -18.8060   36.5386 C   0  0  0  0  0  0  0  0  0  0  0  0
   34.3244  -18.4401   35.3923 C   0  0  0  0  0  0  0  0  0  0  0  0
   34.0588  -17.0700   35.3695 O   0  0  0  0  0  0  0  0  0  0  0  0
   34.7708  -16.1454   36.1337 C   0  0  0  0  0  0  0  0  0  0  0  0
   34.2856  -14.8403   36.2871 C   0  0  0  0  0  0  0  0  0  0  0  0
   34.9702  -13.9042   37.0381 C   0  0  0  0  0  0  0  0  0  0  0  0
   36.1498  -14.3048   37.6309 C   0  0  0  0  0  0  0  0  0  0  0  0
   36.6401  -15.6070   37.4817 C   0  0  0  0  0  0  0  0  0  0  0  0
   35.9416  -16.5081   36.7342 C   0  0  0  0  0  0  0  0  0  0  0  0
   37.1430  -18.0680   35.2384 C   0  0  0  0  0  0  0  0  0  0  0  0
   37.8936  -19.3175   35.1414 N   0  0  0  0  0  0  0  0  0  0  0  0
   37.6611  -19.9702   34.3719 H   0  0  0  0  0  0  0  0  0  0  0  0
   38.9476  -20.9003   36.7045 C   0  0  0  0  0  0  0  0  0  0  0  0
   39.9728  -21.1013   37.6567 C   0  0  0  0  0  0  0  0  0  0  0  0
   40.8900  -20.1370   37.9521 C   0  0  0  0  0  0  0  0  0  0  0  0
   40.8206  -18.9653   37.3251 N   0  0  0  0  0  0  0  0  0  0  0  0
   39.8707  -18.7205   36.4158 C   0  0  0  0  0  0  0  0  0  0  0  0
   38.9044  -19.6784   36.0763 C   0  0  0  0  0  0  0  0  0  0  0  0
   38.3245  -23.1030   36.0322 O   0  0  0  0  0  0  0  0  0  0  0  0
   38.0383  -21.9739   36.4180 C   0  0  0  0  0  0  0  0  0  0  0  0
   36.6579  -21.7352   36.5889 O   0  0  0  0  0  0  0  0  0  0  0  0
   36.0234  -21.6983   35.8088 H   0  0  0  0  0  0  0  0  0  0  0  0
   34.2900  -12.2756   37.1833 S   0  0  0  0  0  0  0  0  0  0  0  0
   32.6263  -12.3263   37.8830 C   0  0  0  0  0  0  0  0  0  0  0  0
   32.2202  -12.9989   39.0086 C   0  0  0  0  0  0  0  0  0  0  0  0
   30.9205  -12.8933   39.3452 C   0  0  0  0  0  0  0  0  0  0  0  0
   30.1231  -12.1260   38.5359 C   0  0  0  0  0  0  0  0  0  0  0  0
   31.2008  -11.5792   37.3394 S   0  0  0  0  0  0  0  0  0  0  0  0
 20 21  2  0  0  0
 21 22  1  0  0  0
 21 14  1  0  0  0
 14 15  2  0  0  0
 15 16  1  0  0  0
 16 17  2  0  0  0
 17 18  1  0  0  0
 18 19  2  0  0  0
 19 12  1  0  0  0
 12 11  1  0  0  0
 11  1  1  0  0  0
  1  2  1  0  0  0
  2  3  1  0  0  0
  3  4  1  0  0  0
  4  5  1  0  0  0
  5  6  2  0  0  0
  6  7  1  0  0  0
  7 24  1  0  0  0
 24 25  1  0  0  0
 25 26  2  0  0  0
 26 27  1  0  0  0
 27 28  2  0  0  0
 28 29  1  0  0  0
  7  8  2  0  0  0
  8  9  1  0  0  0
  9 10  2  0  0  0
 19 14  1  0  0  0
 10  1  1  0  0  0
 10  5  1  0  0  0
 29 25  1  0  0  0
 22 23  1  0  0  0
 12 13  1  0  0  0
M  END
> <minimizedAffinity>
-6.95853

> <CNNscore>
0.2516931593

> <CNNaffinity>
5.3998403549

> <CNN_VS>
1.3591028452

> <CNNaffinity_variance>
0.1937804967

$$$$
[H]OC(=O)c1c([H])c([H])nc([H])c1N([H])C([H])([H])C1([H])c2c([H])c([H])c(Sc3sc([H])c([H])c3[H])c([H])c2OC([H])([H])C1([H])[H]


 29 32  0  0  0  0  0  0  0  0999 V2000
   35.4445  -18.4005   35.6184 C   0  0  0  0  0  0  0  0  0  0  0  0
   36.9431  -18.4539   35.3672 C   0  0  0  0  0  0  0  0  0  0  0  0
   37.6868  -18.0850   36.6135 C   0  0  0  0  0  0  0  0  0  0  0  0
   37.2120  -16.8900   37.1564 O   0  0  0  0  0  0  0  0  0  0  0  0
   36.0176  -16.2936   36.7520 C   0  0  0  0  0  0  0  0  0  0  0  0
   35.7340  -14.9719   37.1191 C   0  0  0  0  0  0  0  0  0  0  0  0
   34.5589  -14.3565   36.7327 C   0  0  0  0  0  0  0  0  0  0  0  0
   33.6760  -15.0943   35.9714 C   0  0  0  0  0  0  0  0  0  0  0  0
   33.9531  -16.4150   35.6012 C   0  0  0  0  0  0  0  0  0  0  0  0
   35.1215  -16.9947   35.9981 C   0  0  0  0  0  0  0  0  0  0  0  0
   35.1406  -19.3524   36.7430 C   0  0  0  0  0  0  0  0  0  0  0  0
   35.1883  -20.7545   36.3359 N   0  0  0  0  0  0  0  0  0  0  0  0
   34.8113  -21.0076   35.4053 H   0  0  0  0  0  0  0  0  0  0  0  0
   34.9077  -22.5943   37.9471 C   0  0  0  0  0  0  0  0  0  0  0  0
   35.5578  -23.5296   38.7841 C   0  0  0  0  0  0  0  0  0  0  0  0
   36.9158  -23.6353   38.8392 C   0  0  0  0  0  0  0  0  0  0  0  0
   37.6579  -22.8320   38.0809 N   0  0  0  0  0  0  0  0  0  0  0  0
   37.0955  -21.9280   37.2713 C   0  0  0  0  0  0  0  0  0  0  0  0
   35.7041  -21.7795   37.1780 C   0  0  0  0  0  0  0  0  0  0  0  0
   32.7465  -21.6102   38.1761 O   0  0  0  0  0  0  0  0  0  0  0  0
   33.4727  -22.5638   37.9139 C   0  0  0  0  0  0  0  0  0  0  0  0
   32.7943  -23.7445   37.5432 O   0  0  0  0  0  0  0  0  0  0  0  0
   32.2379  -24.2671   38.1987 H   0  0  0  0  0  0  0  0  0  0  0  0
   34.2753  -12.6830   37.2378 S   0  0  0  0  0  0  0  0  0  0  0  0
   32.6046  -12.4755   37.8904 C   0  0  0  0  0  0  0  0  0  0  0  0
   32.0901  -13.0196   39.0408 C   0  0  0  0  0  0  0  0  0  0  0  0
   30.8085  -12.7268   39.3326 C   0  0  0  0  0  0  0  0  0  0  0  0
   30.1355  -11.9142   38.4569 C   0  0  0  0  0  0  0  0  0  0  0  0
   31.3008  -11.5856   37.2627 S   0  0  0  0  0  0  0  0  0  0  0  0
 20 21  2  0  0  0
 21 22  1  0  0  0
 21 14  1  0  0  0
 14 15  2  0  0  0
 15 16  1  0  0  0
 16 17  2  0  0  0
 17 18  1  0  0  0
 18 19  2  0  0  0
 19 12  1  0  0  0
 12 11  1  0  0  0
 11  1  1  0  0  0
  1  2  1  0  0  0
  2  3  1  0  0  0
  3  4  1  0  0  0
  4  5  1  0  0  0
  5  6  2  0  0  0
  6  7  1  0  0  0
  7 24  1  0  0  0
 24 25  1  0  0  0
 25 26  2  0  0  0
 26 27  1  0  0  0
 27 28  2  0  0  0
 28 29  1  0  0  0
  7  8  2  0  0  0
  8  9  1  0  0  0
  9 10  2  0  0  0
 19 14  1  0  0  0
 10  1  1  0  0  0
 10  5  1  0  0  0
 29 25  1  0  0  0
 22 23  1  0  0  0
 12 13  1  0  0  0
M  END
> <minimizedAffinity>
-5.94433

> <CNNscore>
0.2492107898

> <CNNaffinity>
5.2747464180

> <CNN_VS>
1.3145236969

> <CNNaffinity_variance>
0.1081835255

$$$$
[H]N=c1c(C(=O)N([H])C([H])([H])c2oc([H])c([H])c2[H])c([H])c2c(=O)n3c([H])c([H])c([H])c([H])c3nc2n1C([H])([H])c1c([H])c([H])c(C([H])([H])[H])c([H])c1[H]


 35 39  0  0  0  0  0  0  0  0999 V2000
   34.1917  -16.7964   34.9284 N   0  0  0  0  0  0  0  0  0  0  0  0
   33.8406  -15.6114   35.4968 C   0  0  0  0  0  0  0  0  0  0  0  0
   32.7723  -15.0982   35.0931 N   0  0  0  0  0  0  0  0  0  0  0  0
   34.6087  -14.9441   36.4152 C   0  0  0  0  0  0  0  0  0  0  0  0
   35.8251  -15.5389   36.7666 C   0  0  0  0  0  0  0  0  0  0  0  0
   36.2097  -16.7184   36.2192 C   0  0  0  0  0  0  0  0  0  0  0  0
   37.4144  -17.2761   36.5665 C   0  0  0  0  0  0  0  0  0  0  0  0
   38.1757  -16.7277   37.4001 O   0  0  0  0  0  0  0  0  0  0  0  0
   37.8048  -18.4351   36.0123 N   0  0  0  0  0  0  0  0  0  0  0  0
   38.9858  -18.9953   36.3436 C   0  0  0  0  0  0  0  0  0  0  0  0
   39.4263  -20.1681   35.8102 C   0  0  0  0  0  0  0  0  0  0  0  0
   38.6287  -20.8268   34.8797 C   0  0  0  0  0  0  0  0  0  0  0  0
   37.4318  -20.2285   34.5648 C   0  0  0  0  0  0  0  0  0  0  0  0
   37.0021  -19.0406   35.1150 C   0  0  0  0  0  0  0  0  0  0  0  0
   35.8280  -18.4798   34.7894 N   0  0  0  0  0  0  0  0  0  0  0  0
   35.3684  -17.3225   35.3019 C   0  0  0  0  0  0  0  0  0  0  0  0
   32.2760  -14.2694   35.3105 H   0  0  0  0  0  0  0  0  0  0  0  0
   34.2698  -13.7451   37.1368 C   0  0  0  0  0  0  0  0  0  0  0  0
   34.0682  -13.9181   38.4070 O   0  0  0  0  0  0  0  0  0  0  0  0
   34.1300  -12.4422   36.6270 N   0  0  0  0  0  0  0  0  0  0  0  0
   34.2428  -12.2662   35.6196 H   0  0  0  0  0  0  0  0  0  0  0  0
   33.7893  -11.3118   37.4831 C   0  0  0  0  0  0  0  0  0  0  0  0
   34.1222  -10.0233   36.8598 C   0  0  0  0  0  0  0  0  0  0  0  0
   33.4123   -8.8560   36.9392 C   0  0  0  0  0  0  0  0  0  0  0  0
   34.1014   -7.8897   36.1917 C   0  0  0  0  0  0  0  0  0  0  0  0
   35.2001   -8.5507   35.7031 C   0  0  0  0  0  0  0  0  0  0  0  0
   35.1726   -9.7824   36.1136 O   0  0  0  0  0  0  0  0  0  0  0  0
   33.3654  -17.4328   33.9438 C   0  0  0  0  0  0  0  0  0  0  0  0
   30.5751  -22.2804   35.4894 C   0  0  0  0  0  0  0  0  0  0  0  0
   31.3432  -21.0762   35.0667 C   0  0  0  0  0  0  0  0  0  0  0  0
   32.4629  -21.1226   34.3043 C   0  0  0  0  0  0  0  0  0  0  0  0
   33.1409  -19.9450   33.9372 C   0  0  0  0  0  0  0  0  0  0  0  0
   32.7190  -18.7019   34.3208 C   0  0  0  0  0  0  0  0  0  0  0  0
   31.5589  -18.6904   35.1069 C   0  0  0  0  0  0  0  0  0  0  0  0
   30.8861  -19.8491   35.4724 C   0  0  0  0  0  0  0  0  0  0  0  0
 29 30  1  0  0  0
 30 31  2  0  0  0
 31 32  1  0  0  0
 32 33  2  0  0  0
 33 28  1  0  0  0
 28  1  1  0  0  0
  1  2  1  0  0  0
  2  3  2  0  0  0
  2  4  1  0  0  0
  4 18  1  0  0  0
 18 19  2  0  0  0
 18 20  1  0  0  0
 20 22  1  0  0  0
 22 23  1  0  0  0
 23 24  2  0  0  0
 24 25  1  0  0  0
 25 26  2  0  0  0
 26 27  1  0  0  0
  4  5  2  0  0  0
  5  6  1  0  0  0
  6  7  1  0  0  0
  7  8  2  0  0  0
  7  9  1  0  0  0
  9 10  1  0  0  0
 10 11  2  0  0  0
 11 12  1  0  0  0
 12 13  2  0  0  0
 13 14  1  0  0  0
 14 15  2  0  0  0
 15 16  1  0  0  0
 33 34  1  0  0  0
 34 35  2  0  0  0
 35 30  1  0  0  0
 16  1  1  0  0  0
 27 23  1  0  0  0
 16  6  2  0  0  0
 14  9  1  0  0  0
  3 17  1  0  0  0
 20 21  1  0  0  0
M  END
> <minimizedAffinity>
-6.44808

> <CNNscore>
0.4458523095

> <CNNaffinity>
6.3373594284

> <CNN_VS>
2.8255262375

> <CNNaffinity_variance>
0.0307237264

$$$$
[H]N=c1c(C(=O)N([H])C([H])([H])c2oc([H])c([H])c2[H])c([H])c2c(=O)n3c([H])c([H])c([H])c([H])c3nc2n1C([H])([H])c1c([H])c([H])c(C([H])([H])[H])c([H])c1[H]


 35 39  0  0  0  0  0  0  0  0999 V2000
   35.6684  -18.6464   36.2689 N   0  0  0  0  0  0  0  0  0  0  0  0
   34.5765  -19.2757   35.7568 C   0  0  0  0  0  0  0  0  0  0  0  0
   34.6651  -20.5174   35.6220 N   0  0  0  0  0  0  0  0  0  0  0  0
   33.4444  -18.6272   35.3364 C   0  0  0  0  0  0  0  0  0  0  0  0
   33.4421  -17.2328   35.4479 C   0  0  0  0  0  0  0  0  0  0  0  0
   34.5130  -16.5705   35.9513 C   0  0  0  0  0  0  0  0  0  0  0  0
   34.4954  -15.2011   36.0369 C   0  0  0  0  0  0  0  0  0  0  0  0
   33.4969  -14.5334   35.6730 O   0  0  0  0  0  0  0  0  0  0  0  0
   35.5618  -14.5426   36.5187 N   0  0  0  0  0  0  0  0  0  0  0  0
   35.5592  -13.1972   36.6089 C   0  0  0  0  0  0  0  0  0  0  0  0
   36.6145  -12.4838   37.0899 C   0  0  0  0  0  0  0  0  0  0  0  0
   37.7527  -13.1648   37.5103 C   0  0  0  0  0  0  0  0  0  0  0  0
   37.7217  -14.5351   37.4047 C   0  0  0  0  0  0  0  0  0  0  0  0
   36.6442  -15.2406   36.9152 C   0  0  0  0  0  0  0  0  0  0  0  0
   36.6416  -16.5787   36.8243 N   0  0  0  0  0  0  0  0  0  0  0  0
   35.6121  -17.3083   36.3538 C   0  0  0  0  0  0  0  0  0  0  0  0
   34.0570  -21.2233   35.2866 H   0  0  0  0  0  0  0  0  0  0  0  0
   32.2135  -19.2179   34.8791 C   0  0  0  0  0  0  0  0  0  0  0  0
   32.3589  -20.1368   33.9746 O   0  0  0  0  0  0  0  0  0  0  0  0
   30.9045  -18.9101   35.2900 N   0  0  0  0  0  0  0  0  0  0  0  0
   30.7405  -18.1615   35.9765 H   0  0  0  0  0  0  0  0  0  0  0  0
   29.7424  -19.6013   34.7436 C   0  0  0  0  0  0  0  0  0  0  0  0
   29.1282  -20.5117   35.7200 C   0  0  0  0  0  0  0  0  0  0  0  0
   29.1393  -21.8800   35.6989 C   0  0  0  0  0  0  0  0  0  0  0  0
   28.4318  -22.3267   36.8247 C   0  0  0  0  0  0  0  0  0  0  0  0
   28.0346  -21.1774   37.4605 C   0  0  0  0  0  0  0  0  0  0  0  0
   28.4585  -20.1509   36.7875 O   0  0  0  0  0  0  0  0  0  0  0  0
   36.8418  -19.3731   36.6590 C   0  0  0  0  0  0  0  0  0  0  0  0
   41.7076  -18.9197   33.5298 C   0  0  0  0  0  0  0  0  0  0  0  0
   40.4216  -19.0314   34.2731 C   0  0  0  0  0  0  0  0  0  0  0  0
   39.2132  -19.1751   33.6762 C   0  0  0  0  0  0  0  0  0  0  0  0
   38.0344  -19.2778   34.4385 C   0  0  0  0  0  0  0  0  0  0  0  0
   38.0353  -19.2394   35.8057 C   0  0  0  0  0  0  0  0  0  0  0  0
   39.3006  -19.0908   36.3896 C   0  0  0  0  0  0  0  0  0  0  0  0
   40.4668  -18.9886   35.6426 C   0  0  0  0  0  0  0  0  0  0  0  0
 29 30  1  0  0  0
 30 31  2  0  0  0
 31 32  1  0  0  0
 32 33  2  0  0  0
 33 28  1  0  0  0
 28  1  1  0  0  0
  1  2  1  0  0  0
  2  3  2  0  0  0
  2  4  1  0  0  0
  4 18  1  0  0  0
 18 19  2  0  0  0
 18 20  1  0  0  0
 20 22  1  0  0  0
 22 23  1  0  0  0
 23 24  2  0  0  0
 24 25  1  0  0  0
 25 26  2  0  0  0
 26 27  1  0  0  0
  4  5  2  0  0  0
  5  6  1  0  0  0
  6  7  1  0  0  0
  7  8  2  0  0  0
  7  9  1  0  0  0
  9 10  1  0  0  0
 10 11  2  0  0  0
 11 12  1  0  0  0
 12 13  2  0  0  0
 13 14  1  0  0  0
 14 15  2  0  0  0
 15 16  1  0  0  0
 33 34  1  0  0  0
 34 35  2  0  0  0
 35 30  1  0  0  0
 16  1  1  0  0  0
 27 23  1  0  0  0
 16  6  2  0  0  0
 14  9  1  0  0  0
  3 17  1  0  0  0
 20 21  1  0  0  0
M  END
> <minimizedAffinity>
-8.81481

> <CNNscore>
0.3780317307

> <CNNaffinity>
5.7821617126

> <CNN_VS>
2.1858406067

> <CNNaffinity_variance>
0.1585614830

$$$$
[H]N=c1c(C(=O)N([H])C([H])([H])c2oc([H])c([H])c2[H])c([H])c2c(=O)n3c([H])c([H])c([H])c([H])c3nc2n1C([H])([H])c1c([H])c([H])c(C([H])([H])[H])c([H])c1[H]


 35 39  0  0  0  0  0  0  0  0999 V2000
   35.9478  -17.7905   36.2390 N   0  0  0  0  0  0  0  0  0  0  0  0
   37.1738  -18.0467   35.7080 C   0  0  0  0  0  0  0  0  0  0  0  0
   38.1424  -17.4592   36.2414 N   0  0  0  0  0  0  0  0  0  0  0  0
   37.3837  -18.8428   34.6122 C   0  0  0  0  0  0  0  0  0  0  0  0
   36.2491  -19.4090   34.0213 C   0  0  0  0  0  0  0  0  0  0  0  0
   35.0106  -19.1745   34.5212 C   0  0  0  0  0  0  0  0  0  0  0  0
   33.9100  -19.7274   33.9162 C   0  0  0  0  0  0  0  0  0  0  0  0
   34.0174  -20.4678   32.9085 O   0  0  0  0  0  0  0  0  0  0  0  0
   32.6815  -19.4820   34.3993 N   0  0  0  0  0  0  0  0  0  0  0  0
   31.5906  -20.0181   33.8156 C   0  0  0  0  0  0  0  0  0  0  0  0
   30.3246  -19.7998   34.2670 C   0  0  0  0  0  0  0  0  0  0  0  0
   30.1372  -18.9877   35.3811 C   0  0  0  0  0  0  0  0  0  0  0  0
   31.2700  -18.4576   35.9514 C   0  0  0  0  0  0  0  0  0  0  0  0
   32.5440  -18.6896   35.4807 C   0  0  0  0  0  0  0  0  0  0  0  0
   33.6322  -18.1594   36.0582 N   0  0  0  0  0  0  0  0  0  0  0  0
   34.8943  -18.3596   35.6332 C   0  0  0  0  0  0  0  0  0  0  0  0
   39.1191  -17.4449   36.0790 H   0  0  0  0  0  0  0  0  0  0  0  0
   38.6462  -19.2455   34.0491 C   0  0  0  0  0  0  0  0  0  0  0  0
   38.7241  -20.5040   33.7427 O   0  0  0  0  0  0  0  0  0  0  0  0
   39.7773  -18.4457   33.8083 N   0  0  0  0  0  0  0  0  0  0  0  0
   39.7730  -17.4511   34.0717 H   0  0  0  0  0  0  0  0  0  0  0  0
   40.9953  -18.9901   33.2192 C   0  0  0  0  0  0  0  0  0  0  0  0
   42.0980  -19.0585   34.1882 C   0  0  0  0  0  0  0  0  0  0  0  0
   43.1284  -18.1702   34.3355 C   0  0  0  0  0  0  0  0  0  0  0  0
   43.9419  -18.6345   35.3796 C   0  0  0  0  0  0  0  0  0  0  0  0
   43.3366  -19.7922   35.7994 C   0  0  0  0  0  0  0  0  0  0  0  0
   42.2735  -20.0001   35.0831 O   0  0  0  0  0  0  0  0  0  0  0  0
   35.7831  -16.9187   37.3660 C   0  0  0  0  0  0  0  0  0  0  0  0
   35.3426  -11.2344   36.2848 C   0  0  0  0  0  0  0  0  0  0  0  0
   35.3871  -12.7001   36.5469 C   0  0  0  0  0  0  0  0  0  0  0  0
   34.3655  -13.5483   36.2750 C   0  0  0  0  0  0  0  0  0  0  0  0
   34.4736  -14.9255   36.5451 C   0  0  0  0  0  0  0  0  0  0  0  0
   35.5972  -15.4835   37.0897 C   0  0  0  0  0  0  0  0  0  0  0  0
   36.6334  -14.5789   37.3574 C   0  0  0  0  0  0  0  0  0  0  0  0
   36.5322  -13.2192   37.0934 C   0  0  0  0  0  0  0  0  0  0  0  0
 29 30  1  0  0  0
 30 31  2  0  0  0
 31 32  1  0  0  0
 32 33  2  0  0  0
 33 28  1  0  0  0
 28  1  1  0  0  0
  1  2  1  0  0  0
  2  3  2  0  0  0
  2  4  1  0  0  0
  4 18  1  0  0  0
 18 19  2  0  0  0
 18 20  1  0  0  0
 20 22  1  0  0  0
 22 23  1  0  0  0
 23 24  2  0  0  0
 24 25  1  0  0  0
 25 26  2  0  0  0
 26 27  1  0  0  0
  4  5  2  0  0  0
  5  6  1  0  0  0
  6  7  1  0  0  0
  7  8  2  0  0  0
  7  9  1  0  0  0
  9 10  1  0  0  0
 10 11  2  0  0  0
 11 12  1  0  0  0
 12 13  2  0  0  0
 13 14  1  0  0  0
 14 15  2  0  0  0
 15 16  1  0  0  0
 33 34  1  0  0  0
 34 35  2  0  0  0
 35 30  1  0  0  0
 16  1  1  0  0  0
 27 23  1  0  0  0
 16  6  2  0  0  0
 14  9  1  0  0  0
  3 17  1  0  0  0
 20 21  1  0  0  0
M  END
> <minimizedAffinity>
-6.61439

> <CNNscore>
0.2938433290

> <CNNaffinity>
5.9940619469

> <CNN_VS>
1.7613151073

> <CNNaffinity_variance>
0.0299595501

$$$$
[H]N=c1c(C(=O)N([H])C([H])([H])c2oc([H])c([H])c2[H])c([H])c2c(=O)n3c([H])c([H])c([H])c([H])c3nc2n1C([H])([H])c1c([H])c([H])c(C([H])([H])[H])c([H])c1[H]


 35 39  0  0  0  0  0  0  0  0999 V2000
   35.7416  -18.1528   35.0223 N   0  0  0  0  0  0  0  0  0  0  0  0
   36.8489  -18.8882   35.3115 C   0  0  0  0  0  0  0  0  0  0  0  0
   36.9415  -19.9984   34.7399 N   0  0  0  0  0  0  0  0  0  0  0  0
   37.8053  -18.5104   36.2177 C   0  0  0  0  0  0  0  0  0  0  0  0
   37.6013  -17.2919   36.8741 C   0  0  0  0  0  0  0  0  0  0  0  0
   36.5083  -16.5328   36.6137 C   0  0  0  0  0  0  0  0  0  0  0  0
   36.3201  -15.3484   37.2808 C   0  0  0  0  0  0  0  0  0  0  0  0
   37.1495  -14.9321   38.1258 O   0  0  0  0  0  0  0  0  0  0  0  0
   35.2296  -14.6040   37.0370 N   0  0  0  0  0  0  0  0  0  0  0  0
   35.0310  -13.4381   37.6846 C   0  0  0  0  0  0  0  0  0  0  0  0
   33.9425  -12.6478   37.4730 C   0  0  0  0  0  0  0  0  0  0  0  0
   32.9853  -13.0530   36.5481 C   0  0  0  0  0  0  0  0  0  0  0  0
   33.2188  -14.2459   35.9061 C   0  0  0  0  0  0  0  0  0  0  0  0
   34.3267  -15.0329   36.1331 C   0  0  0  0  0  0  0  0  0  0  0  0
   34.5292  -16.1929   35.4910 N   0  0  0  0  0  0  0  0  0  0  0  0
   35.5962  -16.9923   35.6805 C   0  0  0  0  0  0  0  0  0  0  0  0
   37.6081  -20.7306   34.7518 H   0  0  0  0  0  0  0  0  0  0  0  0
   39.0494  -19.1743   36.5086 C   0  0  0  0  0  0  0  0  0  0  0  0
   38.9277  -20.4137   36.8731 O   0  0  0  0  0  0  0  0  0  0  0  0
   40.3476  -18.6375   36.4494 N   0  0  0  0  0  0  0  0  0  0  0  0
   40.4876  -17.6486   36.2028 H   0  0  0  0  0  0  0  0  0  0  0  0
   41.5269  -19.4355   36.7649 C   0  0  0  0  0  0  0  0  0  0  0  0
   42.0133  -19.1914   38.1299 C   0  0  0  0  0  0  0  0  0  0  0  0
   43.1143  -18.4682   38.5007 C   0  0  0  0  0  0  0  0  0  0  0  0
   43.1924  -18.5035   39.9007 C   0  0  0  0  0  0  0  0  0  0  0  0
   42.1141  -19.2590   40.2871 C   0  0  0  0  0  0  0  0  0  0  0  0
   41.4593  -19.6368   39.2313 O   0  0  0  0  0  0  0  0  0  0  0  0
   34.7534  -18.6149   34.0911 C   0  0  0  0  0  0  0  0  0  0  0  0
   29.7816  -20.8950   36.0295 C   0  0  0  0  0  0  0  0  0  0  0  0
   31.0906  -20.3381   35.5876 C   0  0  0  0  0  0  0  0  0  0  0  0
   32.2778  -20.6496   36.1627 C   0  0  0  0  0  0  0  0  0  0  0  0
   33.4809  -20.0890   35.6942 C   0  0  0  0  0  0  0  0  0  0  0  0
   33.5257  -19.2101   34.6472 C   0  0  0  0  0  0  0  0  0  0  0  0
   32.2815  -18.9109   34.0760 C   0  0  0  0  0  0  0  0  0  0  0  0
   31.0913  -19.4606   34.5344 C   0  0  0  0  0  0  0  0  0  0  0  0
 29 30  1  0  0  0
 30 31  2  0  0  0
 31 32  1  0  0  0
 32 33  2  0  0  0
 33 28  1  0  0  0
 28  1  1  0  0  0
  1  2  1  0  0  0
  2  3  2  0  0  0
  2  4  1  0  0  0
  4 18  1  0  0  0
 18 19  2  0  0  0
 18 20  1  0  0  0
 20 22  1  0  0  0
 22 23  1  0  0  0
 23 24  2  0  0  0
 24 25  1  0  0  0
 25 26  2  0  0  0
 26 27  1  0  0  0
  4  5  2  0  0  0
  5  6  1  0  0  0
  6  7  1  0  0  0
  7  8  2  0  0  0
  7  9  1  0  0  0
  9 10  1  0  0  0
 10 11  2  0  0  0
 11 12  1  0  0  0
 12 13  2  0  0  0
 13 14  1  0  0  0
 14 15  2  0  0  0
 15 16  1  0  0  0
 33 34  1  0  0  0
 34 35  2  0  0  0
 35 30  1  0  0  0
 16  1  1  0  0  0
 27 23  1  0  0  0
 16  6  2  0  0  0
 14  9  1  0  0  0
  3 17  1  0  0  0
 20 21  1  0  0  0
M  END
> <minimizedAffinity>
-8.87408

> <CNNscore>
0.2534727752

> <CNNaffinity>
5.6721868515

> <CNN_VS>
1.4377449751

> <CNNaffinity_variance>
0.2248438895

$$$$
[H]N=c1c(C(=O)N([H])C([H])([H])c2oc([H])c([H])c2[H])c([H])c2c(=O)n3c([H])c([H])c([H])c([H])c3nc2n1C([H])([H])c1c([H])c([H])c(C([H])([H])[H])c([H])c1[H]


 35 39  0  0  0  0  0  0  0  0999 V2000
   35.4967  -18.0390   35.0429 N   0  0  0  0  0  0  0  0  0  0  0  0
   36.5960  -18.7955   35.3075 C   0  0  0  0  0  0  0  0  0  0  0  0
   36.6544  -19.9073   34.7345 N   0  0  0  0  0  0  0  0  0  0  0  0
   37.5795  -18.4361   36.1920 C   0  0  0  0  0  0  0  0  0  0  0  0
   37.4136  -17.2140   36.8522 C   0  0  0  0  0  0  0  0  0  0  0  0
   36.3298  -16.4341   36.6161 C   0  0  0  0  0  0  0  0  0  0  0  0
   36.1793  -15.2464   37.2867 C   0  0  0  0  0  0  0  0  0  0  0  0
   37.0352  -14.8459   38.1129 O   0  0  0  0  0  0  0  0  0  0  0  0
   35.0981  -14.4812   37.0672 N   0  0  0  0  0  0  0  0  0  0  0  0
   34.9364  -13.3117   37.7187 C   0  0  0  0  0  0  0  0  0  0  0  0
   33.8588  -12.5007   37.5312 C   0  0  0  0  0  0  0  0  0  0  0  0
   32.8735  -12.8875   36.6281 C   0  0  0  0  0  0  0  0  0  0  0  0
   33.0696  -14.0846   35.9815 C   0  0  0  0  0  0  0  0  0  0  0  0
   34.1671  -14.8927   36.1840 C   0  0  0  0  0  0  0  0  0  0  0  0
   34.3329  -16.0563   35.5379 N   0  0  0  0  0  0  0  0  0  0  0  0
   35.3884  -16.8760   35.7037 C   0  0  0  0  0  0  0  0  0  0  0  0
   37.3070  -20.6521   34.7317 H   0  0  0  0  0  0  0  0  0  0  0  0
   38.8168  -19.1237   36.4552 C   0  0  0  0  0  0  0  0  0  0  0  0
   38.6920  -20.2142   37.1473 O   0  0  0  0  0  0  0  0  0  0  0  0
   40.1130  -18.7480   36.0604 N   0  0  0  0  0  0  0  0  0  0  0  0
   40.2624  -17.8710   35.5437 H   0  0  0  0  0  0  0  0  0  0  0  0
   41.2835  -19.5523   36.3921 C   0  0  0  0  0  0  0  0  0  0  0  0
   41.6100  -20.5196   35.3351 C   0  0  0  0  0  0  0  0  0  0  0  0
   42.4271  -21.6128   35.4354 C   0  0  0  0  0  0  0  0  0  0  0  0
   42.4456  -22.2439   34.1829 C   0  0  0  0  0  0  0  0  0  0  0  0
   41.6239  -21.4754   33.3975 C   0  0  0  0  0  0  0  0  0  0  0  0
   41.1619  -20.4883   34.1036 O   0  0  0  0  0  0  0  0  0  0  0  0
   34.4792  -18.4821   34.1344 C   0  0  0  0  0  0  0  0  0  0  0  0
   29.6801  -21.0412   36.1576 C   0  0  0  0  0  0  0  0  0  0  0  0
   30.9461  -20.4064   35.6960 C   0  0  0  0  0  0  0  0  0  0  0  0
   32.1453  -20.5823   36.3027 C   0  0  0  0  0  0  0  0  0  0  0  0
   33.3059  -19.9542   35.8131 C   0  0  0  0  0  0  0  0  0  0  0  0
   33.2956  -19.1413   34.7133 C   0  0  0  0  0  0  0  0  0  0  0  0
   32.0405  -18.9821   34.1106 C   0  0  0  0  0  0  0  0  0  0  0  0
   30.8920  -19.5989   34.5895 C   0  0  0  0  0  0  0  0  0  0  0  0
 29 30  1  0  0  0
 30 31  2  0  0  0
 31 32  1  0  0  0
 32 33  2  0  0  0
 33 28  1  0  0  0
 28  1  1  0  0  0
  1  2  1  0  0  0
  2  3  2  0  0  0
  2  4  1  0  0  0
  4 18  1  0  0  0
 18 19  2  0  0  0
 18 20  1  0  0  0
 20 22  1  0  0  0
 22 23  1  0  0  0
 23 24  2  0  0  0
 24 25  1  0  0  0
 25 26  2  0  0  0
 26 27  1  0  0  0
  4  5  2  0  0  0
  5  6  1  0  0  0
  6  7  1  0  0  0
  7  8  2  0  0  0
  7  9  1  0  0  0
  9 10  1  0  0  0
 10 11  2  0  0  0
 11 12  1  0  0  0
 12 13  2  0  0  0
 13 14  1  0  0  0
 14 15  2  0  0  0
 15 16  1  0  0  0
 33 34  1  0  0  0
 34 35  2  0  0  0
 35 30  1  0  0  0
 16  1  1  0  0  0
 27 23  1  0  0  0
 16  6  2  0  0  0
 14  9  1  0  0  0
  3 17  1  0  0  0
 20 21  1  0  0  0
M  END
> <minimizedAffinity>
-8.29262

> <CNNscore>
0.2466161102

> <CNNaffinity>
5.7240786552

> <CNN_VS>
1.4116500616

> <CNNaffinity_variance>
0.1554846317

$$$$
[H]N=c1c(C(=O)N([H])C([H])([H])c2oc([H])c([H])c2[H])c([H])c2c(=O)n3c([H])c([H])c([H])c([H])c3nc2n1C([H])([H])c1c([H])c([H])c(C([H])([H])[H])c([H])c1[H]


 35 39  0  0  0  0  0  0  0  0999 V2000
   38.8562  -20.4028   36.3371 N   0  0  0  0  0  0  0  0  0  0  0  0
   37.4976  -20.4054   36.2700 C   0  0  0  0  0  0  0  0  0  0  0  0
   36.9971  -20.1135   35.1600 N   0  0  0  0  0  0  0  0  0  0  0  0
   36.6772  -20.6432   37.3421 C   0  0  0  0  0  0  0  0  0  0  0  0
   37.3032  -20.8902   38.5685 C   0  0  0  0  0  0  0  0  0  0  0  0
   38.6550  -20.8934   38.6746 C   0  0  0  0  0  0  0  0  0  0  0  0
   39.2478  -21.1223   39.8908 C   0  0  0  0  0  0  0  0  0  0  0  0
   38.5670  -21.3482   40.9207 O   0  0  0  0  0  0  0  0  0  0  0  0
   40.5859  -21.1084   40.0011 N   0  0  0  0  0  0  0  0  0  0  0  0
   41.1827  -21.3316   41.1895 C   0  0  0  0  0  0  0  0  0  0  0  0
   42.5344  -21.3282   41.3532 C   0  0  0  0  0  0  0  0  0  0  0  0
   43.3462  -21.0841   40.2498 C   0  0  0  0  0  0  0  0  0  0  0  0
   42.7055  -20.8606   39.0543 C   0  0  0  0  0  0  0  0  0  0  0  0
   41.3355  -20.8680   38.9074 C   0  0  0  0  0  0  0  0  0  0  0  0
   40.7372  -20.6474   37.7275 N   0  0  0  0  0  0  0  0  0  0  0  0
   39.4039  -20.6461   37.5379 C   0  0  0  0  0  0  0  0  0  0  0  0
   36.0718  -20.0332   34.8164 H   0  0  0  0  0  0  0  0  0  0  0  0
   35.2424  -20.7637   37.3392 C   0  0  0  0  0  0  0  0  0  0  0  0
   34.6310  -19.9547   38.1489 O   0  0  0  0  0  0  0  0  0  0  0  0
   34.4526  -21.6448   36.5798 N   0  0  0  0  0  0  0  0  0  0  0  0
   34.8976  -22.3295   35.9540 H   0  0  0  0  0  0  0  0  0  0  0  0
   32.9971  -21.6502   36.6724 C   0  0  0  0  0  0  0  0  0  0  0  0
   32.3769  -20.7175   35.7212 C   0  0  0  0  0  0  0  0  0  0  0  0
   32.4917  -20.7257   34.3576 C   0  0  0  0  0  0  0  0  0  0  0  0
   31.7326  -19.6553   33.8622 C   0  0  0  0  0  0  0  0  0  0  0  0
   31.2014  -19.0630   34.9802 C   0  0  0  0  0  0  0  0  0  0  0  0
   31.5998  -19.7091   36.0338 O   0  0  0  0  0  0  0  0  0  0  0  0
   39.6658  -20.1107   35.1897 C   0  0  0  0  0  0  0  0  0  0  0  0
   41.7949  -24.7347   32.4042 C   0  0  0  0  0  0  0  0  0  0  0  0
   41.3086  -23.5138   33.1054 C   0  0  0  0  0  0  0  0  0  0  0  0
   41.9570  -22.3236   33.0890 C   0  0  0  0  0  0  0  0  0  0  0  0
   41.4409  -21.2061   33.7717 C   0  0  0  0  0  0  0  0  0  0  0  0
   40.2730  -21.2513   34.4819 C   0  0  0  0  0  0  0  0  0  0  0  0
   39.6287  -22.4958   34.4771 C   0  0  0  0  0  0  0  0  0  0  0  0
   40.1335  -23.6018   33.8058 C   0  0  0  0  0  0  0  0  0  0  0  0
 29 30  1  0  0  0
 30 31  2  0  0  0
 31 32  1  0  0  0
 32 33  2  0  0  0
 33 28  1  0  0  0
 28  1  1  0  0  0
  1  2  1  0  0  0
  2  3  2  0  0  0
  2  4  1  0  0  0
  4 18  1  0  0  0
 18 19  2  0  0  0
 18 20  1  0  0  0
 20 22  1  0  0  0
 22 23  1  0  0  0
 23 24  2  0  0  0
 24 25  1  0  0  0
 25 26  2  0  0  0
 26 27  1  0  0  0
  4  5  2  0  0  0
  5  6  1  0  0  0
  6  7  1  0  0  0
  7  8  2  0  0  0
  7  9  1  0  0  0
  9 10  1  0  0  0
 10 11  2  0  0  0
 11 12  1  0  0  0
 12 13  2  0  0  0
 13 14  1  0  0  0
 14 15  2  0  0  0
 15 16  1  0  0  0
 33 34  1  0  0  0
 34 35  2  0  0  0
 35 30  1  0  0  0
 16  1  1  0  0  0
 27 23  1  0  0  0
 16  6  2  0  0  0
 14  9  1  0  0  0
  3 17  1  0  0  0
 20 21  1  0  0  0
M  END
> <minimizedAffinity>
-5.57364

> <CNNscore>
0.2436031550

> <CNNaffinity>
5.4427194595

> <CNN_VS>
1.3258635998

> <CNNaffinity_variance>
0.0451487899

$$$$
[H]N=c1c(C(=O)N([H])C([H])([H])c2oc([H])c([H])c2[H])c([H])c2c(=O)n3c([H])c([H])c([H])c([H])c3nc2n1C([H])([H])c1c([H])c([H])c(C([H])([H])[H])c([H])c1[H]


 35 39  0  0  0  0  0  0  0  0999 V2000
   35.4612  -18.9180   36.3801 N   0  0  0  0  0  0  0  0  0  0  0  0
   34.3748  -19.5323   35.8389 C   0  0  0  0  0  0  0  0  0  0  0  0
   34.4323  -20.7797   35.7469 N   0  0  0  0  0  0  0  0  0  0  0  0
   33.2824  -18.8658   35.3477 C   0  0  0  0  0  0  0  0  0  0  0  0
   33.3167  -17.4690   35.4157 C   0  0  0  0  0  0  0  0  0  0  0  0
   34.3835  -16.8215   35.9463 C   0  0  0  0  0  0  0  0  0  0  0  0
   34.4029  -15.4501   35.9885 C   0  0  0  0  0  0  0  0  0  0  0  0
   33.4418  -14.7664   35.5592 O   0  0  0  0  0  0  0  0  0  0  0  0
   35.4659  -14.8069   36.4975 N   0  0  0  0  0  0  0  0  0  0  0  0
   35.4994  -13.4598   36.5456 C   0  0  0  0  0  0  0  0  0  0  0  0
   36.5532  -12.7614   37.0516 C   0  0  0  0  0  0  0  0  0  0  0  0
   37.6507  -13.4605   37.5440 C   0  0  0  0  0  0  0  0  0  0  0  0
   37.5837  -14.8320   37.4798 C   0  0  0  0  0  0  0  0  0  0  0  0
   36.5084  -15.5221   36.9640 C   0  0  0  0  0  0  0  0  0  0  0  0
   36.4700  -16.8619   36.9146 N   0  0  0  0  0  0  0  0  0  0  0  0
   35.4411  -17.5767   36.4208 C   0  0  0  0  0  0  0  0  0  0  0  0
   33.8189  -21.4785   35.4063 H   0  0  0  0  0  0  0  0  0  0  0  0
   32.0559  -19.4358   34.8537 C   0  0  0  0  0  0  0  0  0  0  0  0
   32.1085  -19.8474   33.6242 O   0  0  0  0  0  0  0  0  0  0  0  0
   30.8368  -19.5844   35.5384 N   0  0  0  0  0  0  0  0  0  0  0  0
   30.7391  -19.2368   36.5018 H   0  0  0  0  0  0  0  0  0  0  0  0
   29.6696  -20.1934   34.9111 C   0  0  0  0  0  0  0  0  0  0  0  0
   28.9073  -21.0284   35.8497 C   0  0  0  0  0  0  0  0  0  0  0  0
   28.5316  -22.3335   35.6814 C   0  0  0  0  0  0  0  0  0  0  0  0
   27.8229  -22.7214   36.8280 C   0  0  0  0  0  0  0  0  0  0  0  0
   27.8187  -21.6045   37.6250 C   0  0  0  0  0  0  0  0  0  0  0  0
   28.4567  -20.6485   37.0206 O   0  0  0  0  0  0  0  0  0  0  0  0
   36.5939  -19.6647   36.8454 C   0  0  0  0  0  0  0  0  0  0  0  0
   36.5627  -21.9869   42.1633 C   0  0  0  0  0  0  0  0  0  0  0  0
   36.5029  -21.3737   40.8072 C   0  0  0  0  0  0  0  0  0  0  0  0
   35.4482  -20.6573   40.3471 C   0  0  0  0  0  0  0  0  0  0  0  0
   35.4566  -20.1015   39.0539 C   0  0  0  0  0  0  0  0  0  0  0  0
   36.5118  -20.2474   38.1961 C   0  0  0  0  0  0  0  0  0  0  0  0
   37.5847  -20.9924   38.7038 C   0  0  0  0  0  0  0  0  0  0  0  0
   37.5817  -21.5435   39.9786 C   0  0  0  0  0  0  0  0  0  0  0  0
 29 30  1  0  0  0
 30 31  2  0  0  0
 31 32  1  0  0  0
 32 33  2  0  0  0
 33 28  1  0  0  0
 28  1  1  0  0  0
  1  2  1  0  0  0
  2  3  2  0  0  0
  2  4  1  0  0  0
  4 18  1  0  0  0
 18 19  2  0  0  0
 18 20  1  0  0  0
 20 22  1  0  0  0
 22 23  1  0  0  0
 23 24  2  0  0  0
 24 25  1  0  0  0
 25 26  2  0  0  0
 26 27  1  0  0  0
  4  5  2  0  0  0
  5  6  1  0  0  0
  6  7  1  0  0  0
  7  8  2  0  0  0
  7  9  1  0  0  0
  9 10  1  0  0  0
 10 11  2  0  0  0
 11 12  1  0  0  0
 12 13  2  0  0  0
 13 14  1  0  0  0
 14 15  2  0  0  0
 15 16  1  0  0  0
 33 34  1  0  0  0
 34 35  2  0  0  0
 35 30  1  0  0  0
 16  1  1  0  0  0
 27 23  1  0  0  0
 16  6  2  0  0  0
 14  9  1  0  0  0
  3 17  1  0  0  0
 20 21  1  0  0  0
M  END
> <minimizedAffinity>
-8.30877

> <CNNscore>
0.2090556324

> <CNNaffinity>
5.4139585495

> <CNN_VS>
1.1318185329

> <CNNaffinity_variance>
0.1811864078

$$$$
[H]N=c1c(C(=O)N([H])C([H])([H])c2oc([H])c([H])c2[H])c([H])c2c(=O)n3c([H])c([H])c([H])c([H])c3nc2n1C([H])([H])c1c([H])c([H])c(C([H])([H])[H])c([H])c1[H]


 35 39  0  0  0  0  0  0  0  0999 V2000
   39.0739  -20.8370   36.0200 N   0  0  0  0  0  0  0  0  0  0  0  0
   37.9985  -20.2073   35.4745 C   0  0  0  0  0  0  0  0  0  0  0  0
   38.1248  -19.8206   34.2903 N   0  0  0  0  0  0  0  0  0  0  0  0
   36.8438  -19.9297   36.1589 C   0  0  0  0  0  0  0  0  0  0  0  0
   36.7989  -20.3250   37.5000 C   0  0  0  0  0  0  0  0  0  0  0  0
   37.8522  -20.9528   38.0788 C   0  0  0  0  0  0  0  0  0  0  0  0
   37.7925  -21.3177   39.4003 C   0  0  0  0  0  0  0  0  0  0  0  0
   36.7711  -21.0992   40.0962 O   0  0  0  0  0  0  0  0  0  0  0  0
   38.8413  -21.9237   39.9797 N   0  0  0  0  0  0  0  0  0  0  0  0
   38.7974  -22.2880   41.2772 C   0  0  0  0  0  0  0  0  0  0  0  0
   39.8334  -22.9046   41.9102 C   0  0  0  0  0  0  0  0  0  0  0  0
   40.9952  -23.1755   41.1942 C   0  0  0  0  0  0  0  0  0  0  0  0
   41.0063  -22.7910   39.8745 C   0  0  0  0  0  0  0  0  0  0  0  0
   39.9478  -22.1678   39.2503 C   0  0  0  0  0  0  0  0  0  0  0  0
   39.9862  -21.8042   37.9598 N   0  0  0  0  0  0  0  0  0  0  0  0
   38.9766  -21.1947   37.3098 C   0  0  0  0  0  0  0  0  0  0  0  0
   37.5366  -19.3478   33.6491 H   0  0  0  0  0  0  0  0  0  0  0  0
   35.6287  -19.3617   35.6355 C   0  0  0  0  0  0  0  0  0  0  0  0
   35.1270  -18.4043   36.3535 O   0  0  0  0  0  0  0  0  0  0  0  0
   34.9402  -19.7271   34.4652 N   0  0  0  0  0  0  0  0  0  0  0  0
   35.2812  -20.5065   33.8866 H   0  0  0  0  0  0  0  0  0  0  0  0
   33.7158  -19.0530   34.0488 C   0  0  0  0  0  0  0  0  0  0  0  0
   32.5110  -19.7449   34.5276 C   0  0  0  0  0  0  0  0  0  0  0  0
   31.3101  -19.1816   34.8642 C   0  0  0  0  0  0  0  0  0  0  0  0
   30.4541  -20.2176   35.2657 C   0  0  0  0  0  0  0  0  0  0  0  0
   31.2095  -21.3563   35.1421 C   0  0  0  0  0  0  0  0  0  0  0  0
   32.3927  -21.0372   34.7125 O   0  0  0  0  0  0  0  0  0  0  0  0
   40.2722  -21.0689   35.2666 C   0  0  0  0  0  0  0  0  0  0  0  0
   44.6219  -17.4132   36.4456 C   0  0  0  0  0  0  0  0  0  0  0  0
   43.5532  -18.4025   36.1325 C   0  0  0  0  0  0  0  0  0  0  0  0
   43.7749  -19.7300   35.9724 C   0  0  0  0  0  0  0  0  0  0  0  0
   42.7182  -20.6126   35.6795 C   0  0  0  0  0  0  0  0  0  0  0  0
   41.4241  -20.1923   35.5407 C   0  0  0  0  0  0  0  0  0  0  0  0
   41.2307  -18.8151   35.7132 C   0  0  0  0  0  0  0  0  0  0  0  0
   42.2694  -17.9396   36.0018 C   0  0  0  0  0  0  0  0  0  0  0  0
 29 30  1  0  0  0
 30 31  2  0  0  0
 31 32  1  0  0  0
 32 33  2  0  0  0
 33 28  1  0  0  0
 28  1  1  0  0  0
  1  2  1  0  0  0
  2  3  2  0  0  0
  2  4  1  0  0  0
  4 18  1  0  0  0
 18 19  2  0  0  0
 18 20  1  0  0  0
 20 22  1  0  0  0
 22 23  1  0  0  0
 23 24  2  0  0  0
 24 25  1  0  0  0
 25 26  2  0  0  0
 26 27  1  0  0  0
  4  5  2  0  0  0
  5  6  1  0  0  0
  6  7  1  0  0  0
  7  8  2  0  0  0
  7  9  1  0  0  0
  9 10  1  0  0  0
 10 11  2  0  0  0
 11 12  1  0  0  0
 12 13  2  0  0  0
 13 14  1  0  0  0
 14 15  2  0  0  0
 15 16  1  0  0  0
 33 34  1  0  0  0
 34 35  2  0  0  0
 35 30  1  0  0  0
 16  1  1  0  0  0
 27 23  1  0  0  0
 16  6  2  0  0  0
 14  9  1  0  0  0
  3 17  1  0  0  0
 20 21  1  0  0  0
M  END
> <minimizedAffinity>
-5.33631

> <CNNscore>
0.1977345794

> <CNNaffinity>
5.2276186943

> <CNN_VS>
1.0336810350

> <CNNaffinity_variance>
0.0589732006

$$$$
[H]N=c1c(C(=O)N([H])C([H])([H])c2oc([H])c([H])c2[H])c([H])c2c(=O)n3c([H])c([H])c([H])c([H])c3nc2n1C([H])([H])c1c([H])c([H])c(C([H])([H])[H])c([H])c1[H]


 35 39  0  0  0  0  0  0  0  0999 V2000
   35.4800  -19.5346   36.4913 N   0  0  0  0  0  0  0  0  0  0  0  0
   36.4754  -19.5062   35.5646 C   0  0  0  0  0  0  0  0  0  0  0  0
   36.1506  -19.1342   34.4139 N   0  0  0  0  0  0  0  0  0  0  0  0
   37.7616  -19.9126   35.8079 C   0  0  0  0  0  0  0  0  0  0  0  0
   38.0373  -20.3856   37.0952 C   0  0  0  0  0  0  0  0  0  0  0  0
   37.0702  -20.4311   38.0446 C   0  0  0  0  0  0  0  0  0  0  0  0
   37.3589  -20.9136   39.2963 C   0  0  0  0  0  0  0  0  0  0  0  0
   38.5123  -21.3053   39.5989 O   0  0  0  0  0  0  0  0  0  0  0  0
   36.3982  -20.9757   40.2323 N   0  0  0  0  0  0  0  0  0  0  0  0
   36.6668  -21.4475   41.4666 C   0  0  0  0  0  0  0  0  0  0  0  0
   35.7283  -21.5305   42.4497 C   0  0  0  0  0  0  0  0  0  0  0  0
   34.4294  -21.1120   42.1783 C   0  0  0  0  0  0  0  0  0  0  0  0
   34.1902  -20.6367   40.9108 C   0  0  0  0  0  0  0  0  0  0  0  0
   35.1530  -20.5599   39.9281 C   0  0  0  0  0  0  0  0  0  0  0  0
   34.8911  -20.0907   38.6992 N   0  0  0  0  0  0  0  0  0  0  0  0
   35.7999  -19.9970   37.7099 C   0  0  0  0  0  0  0  0  0  0  0  0
   36.6381  -19.0171   33.5599 H   0  0  0  0  0  0  0  0  0  0  0  0
   38.8927  -19.8227   34.9214 C   0  0  0  0  0  0  0  0  0  0  0  0
   39.4102  -20.9652   34.5887 O   0  0  0  0  0  0  0  0  0  0  0  0
   39.4868  -18.6614   34.3966 N   0  0  0  0  0  0  0  0  0  0  0  0
   39.1331  -17.7332   34.6647 H   0  0  0  0  0  0  0  0  0  0  0  0
   40.6317  -18.7211   33.4952 C   0  0  0  0  0  0  0  0  0  0  0  0
   41.8910  -18.3858   34.1744 C   0  0  0  0  0  0  0  0  0  0  0  0
   42.7190  -19.2378   34.8534 C   0  0  0  0  0  0  0  0  0  0  0  0
   43.7993  -18.4841   35.3353 C   0  0  0  0  0  0  0  0  0  0  0  0
   43.5458  -17.2055   34.9069 C   0  0  0  0  0  0  0  0  0  0  0  0
   42.4320  -17.1936   34.2394 O   0  0  0  0  0  0  0  0  0  0  0  0
   34.1414  -19.1314   36.1706 C   0  0  0  0  0  0  0  0  0  0  0  0
   30.0369  -23.1226   35.2233 C   0  0  0  0  0  0  0  0  0  0  0  0
   31.1374  -22.1504   35.4732 C   0  0  0  0  0  0  0  0  0  0  0  0
   32.4474  -22.4920   35.5412 C   0  0  0  0  0  0  0  0  0  0  0  0
   33.4394  -21.5220   35.7781 C   0  0  0  0  0  0  0  0  0  0  0  0
   33.1479  -20.1970   35.9515 C   0  0  0  0  0  0  0  0  0  0  0  0
   31.7853  -19.8790   35.8745 C   0  0  0  0  0  0  0  0  0  0  0  0
   30.8022  -20.8318   35.6414 C   0  0  0  0  0  0  0  0  0  0  0  0
 29 30  1  0  0  0
 30 31  2  0  0  0
 31 32  1  0  0  0
 32 33  2  0  0  0
 33 28  1  0  0  0
 28  1  1  0  0  0
  1  2  1  0  0  0
  2  3  2  0  0  0
  2  4  1  0  0  0
  4 18  1  0  0  0
 18 19  2  0  0  0
 18 20  1  0  0  0
 20 22  1  0  0  0
 22 23  1  0  0  0
 23 24  2  0  0  0
 24 25  1  0  0  0
 25 26  2  0  0  0
 26 27  1  0  0  0
  4  5  2  0  0  0
  5  6  1  0  0  0
  6  7  1  0  0  0
  7  8  2  0  0  0
  7  9  1  0  0  0
  9 10  1  0  0  0
 10 11  2  0  0  0
 11 12  1  0  0  0
 12 13  2  0  0  0
 13 14  1  0  0  0
 14 15  2  0  0  0
 15 16  1  0  0  0
 33 34  1  0  0  0
 34 35  2  0  0  0
 35 30  1  0  0  0
 16  1  1  0  0  0
 27 23  1  0  0  0
 16  6  2  0  0  0
 14  9  1  0  0  0
  3 17  1  0  0  0
 20 21  1  0  0  0
M  END
> <minimizedAffinity>
-5.69713

> <CNNscore>
0.1898842007

> <CNNaffinity>
5.1719160080

> <CNN_VS>
0.9820651412

> <CNNaffinity_variance>
0.1005478948

$$$$
[H]/C(=C(\[H])C([H])([H])C([H])([H])N([H])C(=O)/C([H])=C([H])/C([H])=C([H])/C([H])=C(\[H])c1sc([H])c([H])c1[H])C([H])([H])OC(=O)C([H])([H])C([H])(C([H])([H])[H])C([H])([H])[H]


 27 27  0  0  0  0  0  0  0  0999 V2000
   37.8431  -18.2034   35.3318 N   0  0  0  0  0  0  0  0  0  0  0  0
   36.9594  -18.0076   36.4091 C   0  0  0  0  0  0  0  0  0  0  0  0
   36.9360  -18.8579   37.3336 O   0  0  0  0  0  0  0  0  0  0  0  0
   37.8692  -17.4971   34.5582 H   0  0  0  0  0  0  0  0  0  0  0  0
   36.0876  -16.8605   36.4735 C   0  0  0  0  0  0  0  0  0  0  0  0
   36.3060  -15.7991   37.1951 C   0  0  0  0  0  0  0  0  0  0  0  0
   35.3796  -14.6617   37.2189 C   0  0  0  0  0  0  0  0  0  0  0  0
   34.2433  -14.6488   36.5837 C   0  0  0  0  0  0  0  0  0  0  0  0
   33.3295  -13.4903   36.6248 C   0  0  0  0  0  0  0  0  0  0  0  0
   33.5660  -12.4735   37.4215 C   0  0  0  0  0  0  0  0  0  0  0  0
   32.6407  -11.3151   37.4539 C   0  0  0  0  0  0  0  0  0  0  0  0
   31.2723  -11.3361   37.4326 C   0  0  0  0  0  0  0  0  0  0  0  0
   30.6367  -10.1539   37.4705 C   0  0  0  0  0  0  0  0  0  0  0  0
   31.4136   -9.0277   37.5274 C   0  0  0  0  0  0  0  0  0  0  0  0
   32.9975   -9.6501   37.5262 S   0  0  0  0  0  0  0  0  0  0  0  0
   38.7314  -19.3347   35.2224 C   0  0  0  0  0  0  0  0  0  0  0  0
   39.2543  -19.5563   33.8156 C   0  0  0  0  0  0  0  0  0  0  0  0
   41.5672  -18.6830   33.8309 C   0  0  0  0  0  0  0  0  0  0  0  0
   40.3126  -18.5868   33.4778 C   0  0  0  0  0  0  0  0  0  0  0  0
   42.0751  -19.8016   34.6282 C   0  0  0  0  0  0  0  0  0  0  0  0
   42.2150  -20.9447   33.8143 O   0  0  0  0  0  0  0  0  0  0  0  0
   42.1910  -22.2026   34.3660 C   0  0  0  0  0  0  0  0  0  0  0  0
   42.8749  -22.4498   35.3804 O   0  0  0  0  0  0  0  0  0  0  0  0
   41.3660  -23.3085   33.7929 C   0  0  0  0  0  0  0  0  0  0  0  0
   43.3168  -23.9022   32.3429 C   0  0  0  0  0  0  0  0  0  0  0  0
   41.8470  -23.6317   32.3950 C   0  0  0  0  0  0  0  0  0  0  0  0
   41.1020  -24.7858   31.7924 C   0  0  0  0  0  0  0  0  0  0  0  0
 25 26  1  0  0  0
 26 27  1  0  0  0
 26 24  1  0  0  0
 24 22  1  0  0  0
 22 23  2  0  0  0
 22 21  1  0  0  0
 21 20  1  0  0  0
 20 18  1  0  0  0
 18 19  2  0  0  0
 19 17  1  0  0  0
 17 16  1  0  0  0
 16  1  1  0  0  0
  1  2  1  0  0  0
  2  3  2  0  0  0
  2  5  1  0  0  0
  5  6  2  0  0  0
  6  7  1  0  0  0
  7  8  2  0  0  0
  8  9  1  0  0  0
  9 10  2  0  0  0
 10 11  1  0  0  0
 11 12  2  0  0  0
 12 13  1  0  0  0
 13 14  2  0  0  0
 14 15  1  0  0  0
 15 11  1  0  0  0
  1  4  1  0  0  0
M  END
> <minimizedAffinity>
-5.38716

> <CNNscore>
0.3784026206

> <CNNaffinity>
4.9794721603

> <CNN_VS>
1.8842452765

> <CNNaffinity_variance>
0.1943196952

$$$$
[H]/C(=C(\[H])C([H])([H])C([H])([H])N([H])C(=O)/C([H])=C([H])/C([H])=C([H])/C([H])=C(\[H])c1sc([H])c([H])c1[H])C([H])([H])OC(=O)C([H])([H])C([H])(C([H])([H])[H])C([H])([H])[H]


 27 27  0  0  0  0  0  0  0  0999 V2000
   33.7574  -11.0093   37.1771 N   0  0  0  0  0  0  0  0  0  0  0  0
   33.6301  -12.2720   37.7849 C   0  0  0  0  0  0  0  0  0  0  0  0
   32.9668  -12.3670   38.8475 O   0  0  0  0  0  0  0  0  0  0  0  0
   34.3077  -10.9232   36.2895 H   0  0  0  0  0  0  0  0  0  0  0  0
   34.2402  -13.4494   37.2178 C   0  0  0  0  0  0  0  0  0  0  0  0
   33.6290  -14.3118   36.4577 C   0  0  0  0  0  0  0  0  0  0  0  0
   34.3049  -15.4929   35.9095 C   0  0  0  0  0  0  0  0  0  0  0  0
   35.5805  -15.7157   36.0432 C   0  0  0  0  0  0  0  0  0  0  0  0
   36.2355  -16.9133   35.4812 C   0  0  0  0  0  0  0  0  0  0  0  0
   37.0610  -17.6326   36.2061 C   0  0  0  0  0  0  0  0  0  0  0  0
   37.7129  -18.8338   35.6305 C   0  0  0  0  0  0  0  0  0  0  0  0
   37.8455  -19.1614   34.3082 C   0  0  0  0  0  0  0  0  0  0  0  0
   38.4787  -20.3093   34.0178 C   0  0  0  0  0  0  0  0  0  0  0  0
   38.9379  -21.0541   35.0711 C   0  0  0  0  0  0  0  0  0  0  0  0
   38.4742  -20.1346   36.4260 S   0  0  0  0  0  0  0  0  0  0  0  0
   33.1680   -9.8043   37.7074 C   0  0  0  0  0  0  0  0  0  0  0  0
   31.9348   -9.3521   36.9480 C   0  0  0  0  0  0  0  0  0  0  0  0
   29.8557   -9.7018   38.2394 C   0  0  0  0  0  0  0  0  0  0  0  0
   30.8565   -8.9474   37.8685 C   0  0  0  0  0  0  0  0  0  0  0  0
   29.6907  -11.0771   37.7639 C   0  0  0  0  0  0  0  0  0  0  0  0
   28.3561  -11.2866   37.3591 O   0  0  0  0  0  0  0  0  0  0  0  0
   27.3935  -11.6313   38.2766 C   0  0  0  0  0  0  0  0  0  0  0  0
   27.1342  -12.8346   38.4835 O   0  0  0  0  0  0  0  0  0  0  0  0
   26.6289  -10.6085   39.0519 C   0  0  0  0  0  0  0  0  0  0  0  0
   27.5903   -9.5697   41.1152 C   0  0  0  0  0  0  0  0  0  0  0  0
   26.9160  -10.7688   40.5290 C   0  0  0  0  0  0  0  0  0  0  0  0
   25.6782  -11.0839   41.3156 C   0  0  0  0  0  0  0  0  0  0  0  0
 25 26  1  0  0  0
 26 27  1  0  0  0
 26 24  1  0  0  0
 24 22  1  0  0  0
 22 23  2  0  0  0
 22 21  1  0  0  0
 21 20  1  0  0  0
 20 18  1  0  0  0
 18 19  2  0  0  0
 19 17  1  0  0  0
 17 16  1  0  0  0
 16  1  1  0  0  0
  1  2  1  0  0  0
  2  3  2  0  0  0
  2  5  1  0  0  0
  5  6  2  0  0  0
  6  7  1  0  0  0
  7  8  2  0  0  0
  8  9  1  0  0  0
  9 10  2  0  0  0
 10 11  1  0  0  0
 11 12  2  0  0  0
 12 13  1  0  0  0
 13 14  2  0  0  0
 14 15  1  0  0  0
 15 11  1  0  0  0
  1  4  1  0  0  0
M  END
> <minimizedAffinity>
-6.53047

> <CNNscore>
0.3671136796

> <CNNaffinity>
5.8010225296

> <CNN_VS>
2.1296346188

> <CNNaffinity_variance>
0.0705138445

$$$$
[H]/C(=C(\[H])C([H])([H])C([H])([H])N([H])C(=O)/C([H])=C([H])/C([H])=C([H])/C([H])=C(\[H])c1sc([H])c([H])c1[H])C([H])([H])OC(=O)C([H])([H])C([H])(C([H])([H])[H])C([H])([H])[H]


 27 27  0  0  0  0  0  0  0  0999 V2000
   38.2576  -18.1506   36.0711 N   0  0  0  0  0  0  0  0  0  0  0  0
   37.0949  -17.8713   36.8127 C   0  0  0  0  0  0  0  0  0  0  0  0
   36.6070  -18.7761   37.5349 O   0  0  0  0  0  0  0  0  0  0  0  0
   38.6709  -17.3999   35.4681 H   0  0  0  0  0  0  0  0  0  0  0  0
   36.4573  -16.5787   36.7615 C   0  0  0  0  0  0  0  0  0  0  0  0
   36.6483  -15.6199   37.6212 C   0  0  0  0  0  0  0  0  0  0  0  0
   35.9689  -14.3238   37.5155 C   0  0  0  0  0  0  0  0  0  0  0  0
   34.9113  -14.1261   36.7827 C   0  0  0  0  0  0  0  0  0  0  0  0
   34.2471  -12.8108   36.6945 C   0  0  0  0  0  0  0  0  0  0  0  0
   33.4945  -12.3689   37.6757 C   0  0  0  0  0  0  0  0  0  0  0  0
   32.8324  -11.0457   37.5757 C   0  0  0  0  0  0  0  0  0  0  0  0
   33.4273   -9.8200   37.4452 C   0  0  0  0  0  0  0  0  0  0  0  0
   32.6217   -8.7481   37.3725 C   0  0  0  0  0  0  0  0  0  0  0  0
   31.2726   -8.9744   37.4350 C   0  0  0  0  0  0  0  0  0  0  0  0
   31.1711  -10.6658   37.5926 S   0  0  0  0  0  0  0  0  0  0  0  0
   38.9288  -19.4273   36.0883 C   0  0  0  0  0  0  0  0  0  0  0  0
   38.4236  -20.3880   35.0283 C   0  0  0  0  0  0  0  0  0  0  0  0
   38.7457  -22.6963   35.8533 C   0  0  0  0  0  0  0  0  0  0  0  0
   39.1153  -21.6876   35.1089 C   0  0  0  0  0  0  0  0  0  0  0  0
   37.5651  -22.6429   36.7182 C   0  0  0  0  0  0  0  0  0  0  0  0
   37.9339  -22.9266   38.0495 O   0  0  0  0  0  0  0  0  0  0  0  0
   38.5913  -21.9884   38.8076 C   0  0  0  0  0  0  0  0  0  0  0  0
   37.9430  -21.0969   39.3931 O   0  0  0  0  0  0  0  0  0  0  0  0
   40.0770  -21.9892   38.9643 C   0  0  0  0  0  0  0  0  0  0  0  0
   41.1243  -20.8881   40.9521 C   0  0  0  0  0  0  0  0  0  0  0  0
   40.5236  -20.6892   39.5972 C   0  0  0  0  0  0  0  0  0  0  0  0
   41.4858  -19.9366   38.7265 C   0  0  0  0  0  0  0  0  0  0  0  0
 25 26  1  0  0  0
 26 27  1  0  0  0
 26 24  1  0  0  0
 24 22  1  0  0  0
 22 23  2  0  0  0
 22 21  1  0  0  0
 21 20  1  0  0  0
 20 18  1  0  0  0
 18 19  2  0  0  0
 19 17  1  0  0  0
 17 16  1  0  0  0
 16  1  1  0  0  0
  1  2  1  0  0  0
  2  3  2  0  0  0
  2  5  1  0  0  0
  5  6  2  0  0  0
  6  7  1  0  0  0
  7  8  2  0  0  0
  8  9  1  0  0  0
  9 10  2  0  0  0
 10 11  1  0  0  0
 11 12  2  0  0  0
 12 13  1  0  0  0
 13 14  2  0  0  0
 14 15  1  0  0  0
 15 11  1  0  0  0
  1  4  1  0  0  0
M  END
> <minimizedAffinity>
-5.41581

> <CNNscore>
0.3097576499

> <CNNaffinity>
5.0694026947

> <CNN_VS>
1.5702862740

> <CNNaffinity_variance>
0.0849098489

$$$$
[H]/C(=C(\[H])C([H])([H])C([H])([H])N([H])C(=O)/C([H])=C([H])/C([H])=C([H])/C([H])=C(\[H])c1sc([H])c([H])c1[H])C([H])([H])OC(=O)C([H])([H])C([H])(C([H])([H])[H])C([H])([H])[H]


 27 27  0  0  0  0  0  0  0  0999 V2000
   33.9428  -20.5289   36.0255 N   0  0  0  0  0  0  0  0  0  0  0  0
   34.4558  -20.6868   37.3262 C   0  0  0  0  0  0  0  0  0  0  0  0
   33.6509  -20.7723   38.2869 O   0  0  0  0  0  0  0  0  0  0  0  0
   34.6085  -20.4588   35.2193 H   0  0  0  0  0  0  0  0  0  0  0  0
   35.8745  -20.7520   37.5770 C   0  0  0  0  0  0  0  0  0  0  0  0
   36.7235  -21.4454   36.8745 C   0  0  0  0  0  0  0  0  0  0  0  0
   38.1583  -21.4718   37.1796 C   0  0  0  0  0  0  0  0  0  0  0  0
   38.6743  -20.9361   38.2480 C   0  0  0  0  0  0  0  0  0  0  0  0
   40.1226  -20.9773   38.5306 C   0  0  0  0  0  0  0  0  0  0  0  0
   40.7328  -19.9485   39.0725 C   0  0  0  0  0  0  0  0  0  0  0  0
   42.1883  -20.0017   39.3519 C   0  0  0  0  0  0  0  0  0  0  0  0
   42.9176  -19.1657   40.1535 C   0  0  0  0  0  0  0  0  0  0  0  0
   44.2345  -19.4061   40.2589 C   0  0  0  0  0  0  0  0  0  0  0  0
   44.7347  -20.4685   39.5545 C   0  0  0  0  0  0  0  0  0  0  0  0
   43.3597  -21.0950   38.7714 S   0  0  0  0  0  0  0  0  0  0  0  0
   32.5336  -20.4562   35.7257 C   0  0  0  0  0  0  0  0  0  0  0  0
   32.0569  -19.0513   35.4082 C   0  0  0  0  0  0  0  0  0  0  0  0
   33.6226  -17.3691   34.4963 C   0  0  0  0  0  0  0  0  0  0  0  0
   32.8773  -18.4328   34.3507 C   0  0  0  0  0  0  0  0  0  0  0  0
   33.7264  -16.6512   35.7686 C   0  0  0  0  0  0  0  0  0  0  0  0
   34.3568  -15.4061   35.5654 O   0  0  0  0  0  0  0  0  0  0  0  0
   34.1793  -14.3788   36.4600 C   0  0  0  0  0  0  0  0  0  0  0  0
   33.1285  -13.7057   36.4334 O   0  0  0  0  0  0  0  0  0  0  0  0
   35.2096  -14.0257   37.4826 C   0  0  0  0  0  0  0  0  0  0  0  0
   37.6596  -13.5256   37.3948 C   0  0  0  0  0  0  0  0  0  0  0  0
   36.5737  -14.4788   37.0096 C   0  0  0  0  0  0  0  0  0  0  0  0
   36.9153  -15.8545   37.5005 C   0  0  0  0  0  0  0  0  0  0  0  0
 25 26  1  0  0  0
 26 27  1  0  0  0
 26 24  1  0  0  0
 24 22  1  0  0  0
 22 23  2  0  0  0
 22 21  1  0  0  0
 21 20  1  0  0  0
 20 18  1  0  0  0
 18 19  2  0  0  0
 19 17  1  0  0  0
 17 16  1  0  0  0
 16  1  1  0  0  0
  1  2  1  0  0  0
  2  3  2  0  0  0
  2  5  1  0  0  0
  5  6  2  0  0  0
  6  7  1  0  0  0
  7  8  2  0  0  0
  8  9  1  0  0  0
  9 10  2  0  0  0
 10 11  1  0  0  0
 11 12  2  0  0  0
 12 13  1  0  0  0
 13 14  2  0  0  0
 14 15  1  0  0  0
 15 11  1  0  0  0
  1  4  1  0  0  0
M  END
> <minimizedAffinity>
-4.98863

> <CNNscore>
0.2932472229

> <CNNaffinity>
4.8432893753

> <CNN_VS>
1.4202811718

> <CNNaffinity_variance>
0.3623383343

$$$$
[H]/C(=C(\[H])C([H])([H])C([H])([H])N([H])C(=O)/C([H])=C([H])/C([H])=C([H])/C([H])=C(\[H])c1sc([H])c([H])c1[H])C([H])([H])OC(=O)C([H])([H])C([H])(C([H])([H])[H])C([H])([H])[H]


 27 27  0  0  0  0  0  0  0  0999 V2000
   37.8686  -18.1409   35.3034 N   0  0  0  0  0  0  0  0  0  0  0  0
   37.0060  -17.9466   36.3980 C   0  0  0  0  0  0  0  0  0  0  0  0
   37.0079  -18.7929   37.3264 O   0  0  0  0  0  0  0  0  0  0  0  0
   37.8735  -17.4378   34.5264 H   0  0  0  0  0  0  0  0  0  0  0  0
   36.1275  -16.8055   36.4755 C   0  0  0  0  0  0  0  0  0  0  0  0
   36.3378  -15.7528   37.2122 C   0  0  0  0  0  0  0  0  0  0  0  0
   35.4049  -14.6210   37.2488 C   0  0  0  0  0  0  0  0  0  0  0  0
   34.2961  -14.5833   36.5677 C   0  0  0  0  0  0  0  0  0  0  0  0
   33.3749  -13.4312   36.6232 C   0  0  0  0  0  0  0  0  0  0  0  0
   33.6228  -12.4075   37.4073 C   0  0  0  0  0  0  0  0  0  0  0  0
   32.6899  -11.2556   37.4544 C   0  0  0  0  0  0  0  0  0  0  0  0
   31.3220  -11.2874   37.4872 C   0  0  0  0  0  0  0  0  0  0  0  0
   30.6786  -10.1095   37.5279 C   0  0  0  0  0  0  0  0  0  0  0  0
   31.4477   -8.9766   37.5332 C   0  0  0  0  0  0  0  0  0  0  0  0
   33.0354   -9.5870   37.4814 S   0  0  0  0  0  0  0  0  0  0  0  0
   38.7625  -19.2663   35.1805 C   0  0  0  0  0  0  0  0  0  0  0  0
   39.2051  -19.5311   33.7537 C   0  0  0  0  0  0  0  0  0  0  0  0
   41.6308  -19.0846   33.5831 C   0  0  0  0  0  0  0  0  0  0  0  0
   40.3878  -18.7245   33.4006 C   0  0  0  0  0  0  0  0  0  0  0  0
   41.9962  -20.3714   34.1792 C   0  0  0  0  0  0  0  0  0  0  0  0
   41.8369  -21.4014   33.2291 O   0  0  0  0  0  0  0  0  0  0  0  0
   41.7924  -22.7162   33.6245 C   0  0  0  0  0  0  0  0  0  0  0  0
   42.1268  -23.6168   32.8276 O   0  0  0  0  0  0  0  0  0  0  0  0
   41.3525  -23.1223   34.9933 C   0  0  0  0  0  0  0  0  0  0  0  0
   39.0622  -23.5821   34.0969 C   0  0  0  0  0  0  0  0  0  0  0  0
   39.8664  -22.8800   35.1440 C   0  0  0  0  0  0  0  0  0  0  0  0
   39.3650  -23.2645   36.5045 C   0  0  0  0  0  0  0  0  0  0  0  0
 25 26  1  0  0  0
 26 27  1  0  0  0
 26 24  1  0  0  0
 24 22  1  0  0  0
 22 23  2  0  0  0
 22 21  1  0  0  0
 21 20  1  0  0  0
 20 18  1  0  0  0
 18 19  2  0  0  0
 19 17  1  0  0  0
 17 16  1  0  0  0
 16  1  1  0  0  0
  1  2  1  0  0  0
  2  3  2  0  0  0
  2  5  1  0  0  0
  5  6  2  0  0  0
  6  7  1  0  0  0
  7  8  2  0  0  0
  8  9  1  0  0  0
  9 10  2  0  0  0
 10 11  1  0  0  0
 11 12  2  0  0  0
 12 13  1  0  0  0
 13 14  2  0  0  0
 14 15  1  0  0  0
 15 11  1  0  0  0
  1  4  1  0  0  0
M  END
> <minimizedAffinity>
-5.43064

> <CNNscore>
0.2787649035

> <CNNaffinity>
4.9237899780

> <CNN_VS>
1.3725798130

> <CNNaffinity_variance>
0.1949392855

$$$$
[H]/C(=C(\[H])C([H])([H])C([H])([H])N([H])C(=O)/C([H])=C([H])/C([H])=C([H])/C([H])=C(\[H])c1sc([H])c([H])c1[H])C([H])([H])OC(=O)C([H])([H])C([H])(C([H])([H])[H])C([H])([H])[H]


 27 27  0  0  0  0  0  0  0  0999 V2000
   35.2227  -17.3123   35.2111 N   0  0  0  0  0  0  0  0  0  0  0  0
   35.9529  -18.1704   36.0540 C   0  0  0  0  0  0  0  0  0  0  0  0
   35.4599  -18.4900   37.1644 O   0  0  0  0  0  0  0  0  0  0  0  0
   35.6272  -17.0432   34.2826 H   0  0  0  0  0  0  0  0  0  0  0  0
   37.2445  -18.6863   35.6726 C   0  0  0  0  0  0  0  0  0  0  0  0
   37.5924  -19.9396   35.7312 C   0  0  0  0  0  0  0  0  0  0  0  0
   38.9243  -20.4043   35.3280 C   0  0  0  0  0  0  0  0  0  0  0  0
   39.1228  -21.2893   34.3941 C   0  0  0  0  0  0  0  0  0  0  0  0
   40.4746  -21.7393   34.0080 C   0  0  0  0  0  0  0  0  0  0  0  0
   41.2538  -22.3494   34.8711 C   0  0  0  0  0  0  0  0  0  0  0  0
   42.6099  -22.7970   34.4715 C   0  0  0  0  0  0  0  0  0  0  0  0
   42.9820  -23.3942   33.2975 C   0  0  0  0  0  0  0  0  0  0  0  0
   44.2776  -23.7161   33.1529 C   0  0  0  0  0  0  0  0  0  0  0  0
   45.1159  -23.4183   34.1939 C   0  0  0  0  0  0  0  0  0  0  0  0
   44.0760  -22.7030   35.3353 S   0  0  0  0  0  0  0  0  0  0  0  0
   33.9297  -16.7699   35.5496 C   0  0  0  0  0  0  0  0  0  0  0  0
   33.9585  -15.2812   35.8412 C   0  0  0  0  0  0  0  0  0  0  0  0
   35.3305  -13.8032   37.2715 C   0  0  0  0  0  0  0  0  0  0  0  0
   35.1751  -14.9036   36.5836 C   0  0  0  0  0  0  0  0  0  0  0  0
   34.2777  -12.7912   37.3824 C   0  0  0  0  0  0  0  0  0  0  0  0
   33.4473  -13.0833   38.4841 O   0  0  0  0  0  0  0  0  0  0  0  0
   32.1053  -12.7926   38.4442 C   0  0  0  0  0  0  0  0  0  0  0  0
   31.3616  -13.1593   39.3772 O   0  0  0  0  0  0  0  0  0  0  0  0
   31.4857  -12.0425   37.3104 C   0  0  0  0  0  0  0  0  0  0  0  0
   31.2691   -9.5499   37.3394 C   0  0  0  0  0  0  0  0  0  0  0  0
   30.7252  -10.8481   37.8445 C   0  0  0  0  0  0  0  0  0  0  0  0
   29.2581  -10.9297   37.5426 C   0  0  0  0  0  0  0  0  0  0  0  0
 25 26  1  0  0  0
 26 27  1  0  0  0
 26 24  1  0  0  0
 24 22  1  0  0  0
 22 23  2  0  0  0
 22 21  1  0  0  0
 21 20  1  0  0  0
 20 18  1  0  0  0
 18 19  2  0  0  0
 19 17  1  0  0  0
 17 16  1  0  0  0
 16  1  1  0  0  0
  1  2  1  0  0  0
  2  3  2  0  0  0
  2  5  1  0  0  0
  5  6  2  0  0  0
  6  7  1  0  0  0
  7  8  2  0  0  0
  8  9  1  0  0  0
  9 10  2  0  0  0
 10 11  1  0  0  0
 11 12  2  0  0  0
 12 13  1  0  0  0
 13 14  2  0  0  0
 14 15  1  0  0  0
 15 11  1  0  0  0
  1  4  1  0  0  0
M  END
> <minimizedAffinity>
-5.36403

> <CNNscore>
0.2705831826

> <CNNaffinity>
4.9282217026

> <CNN_VS>
1.3334939480

> <CNNaffinity_variance>
0.1176419109

$$$$
[H]/C(=C(\[H])C([H])([H])C([H])([H])N([H])C(=O)/C([H])=C([H])/C([H])=C([H])/C([H])=C(\[H])c1sc([H])c([H])c1[H])C([H])([H])OC(=O)C([H])([H])C([H])(C([H])([H])[H])C([H])([H])[H]


 27 27  0  0  0  0  0  0  0  0999 V2000
   33.1173  -10.9941   37.7133 N   0  0  0  0  0  0  0  0  0  0  0  0
   34.2254  -11.6101   37.1031 C   0  0  0  0  0  0  0  0  0  0  0  0
   34.9838  -10.9134   36.3836 O   0  0  0  0  0  0  0  0  0  0  0  0
   32.4817  -11.5689   38.3164 H   0  0  0  0  0  0  0  0  0  0  0  0
   34.5064  -13.0129   37.2853 C   0  0  0  0  0  0  0  0  0  0  0  0
   35.1695  -13.7545   36.4454 C   0  0  0  0  0  0  0  0  0  0  0  0
   35.4239  -15.1790   36.6870 C   0  0  0  0  0  0  0  0  0  0  0  0
   36.6182  -15.6881   36.7824 C   0  0  0  0  0  0  0  0  0  0  0  0
   36.8458  -17.1261   37.0262 C   0  0  0  0  0  0  0  0  0  0  0  0
   35.8625  -17.9089   37.4067 C   0  0  0  0  0  0  0  0  0  0  0  0
   36.1033  -19.3521   37.6484 C   0  0  0  0  0  0  0  0  0  0  0  0
   35.5640  -20.1374   38.6312 C   0  0  0  0  0  0  0  0  0  0  0  0
   35.9289  -21.4294   38.6579 C   0  0  0  0  0  0  0  0  0  0  0  0
   36.8101  -21.8503   37.6980 C   0  0  0  0  0  0  0  0  0  0  0  0
   37.1004  -20.4382   36.7937 S   0  0  0  0  0  0  0  0  0  0  0  0
   32.7946   -9.5966   37.5590 C   0  0  0  0  0  0  0  0  0  0  0  0
   31.3050   -9.3310   37.4476 C   0  0  0  0  0  0  0  0  0  0  0  0
   29.4413  -10.9090   37.8338 C   0  0  0  0  0  0  0  0  0  0  0  0
   30.5524  -10.5799   37.2294 C   0  0  0  0  0  0  0  0  0  0  0  0
   28.8022  -10.0439   38.8278 C   0  0  0  0  0  0  0  0  0  0  0  0
   28.8441  -10.6598   40.0958 O   0  0  0  0  0  0  0  0  0  0  0  0
   27.9201  -10.3379   41.0600 C   0  0  0  0  0  0  0  0  0  0  0  0
   27.1979   -9.3299   40.9172 O   0  0  0  0  0  0  0  0  0  0  0  0
   27.7391  -11.1578   42.2957 C   0  0  0  0  0  0  0  0  0  0  0  0
   25.8466  -11.1575   43.9324 C   0  0  0  0  0  0  0  0  0  0  0  0
   26.9596  -10.3661   43.3231 C   0  0  0  0  0  0  0  0  0  0  0  0
   27.8418   -9.8224   44.4077 C   0  0  0  0  0  0  0  0  0  0  0  0
 25 26  1  0  0  0
 26 27  1  0  0  0
 26 24  1  0  0  0
 24 22  1  0  0  0
 22 23  2  0  0  0
 22 21  1  0  0  0
 21 20  1  0  0  0
 20 18  1  0  0  0
 18 19  2  0  0  0
 19 17  1  0  0  0
 17 16  1  0  0  0
 16  1  1  0  0  0
  1  2  1  0  0  0
  2  3  2  0  0  0
  2  5  1  0  0  0
  5  6  2  0  0  0
  6  7  1  0  0  0
  7  8  2  0  0  0
  8  9  1  0  0  0
  9 10  2  0  0  0
 10 11  1  0  0  0
 11 12  2  0  0  0
 12 13  1  0  0  0
 13 14  2  0  0  0
 14 15  1  0  0  0
 15 11  1  0  0  0
  1  4  1  0  0  0
M  END
> <minimizedAffinity>
-5.82988

> <CNNscore>
0.2647870779

> <CNNaffinity>
5.4333567619

> <CNN_VS>
1.4386826754

> <CNNaffinity_variance>
0.0857962221

$$$$
[H]/C(=C(\[H])C([H])([H])C([H])([H])N([H])C(=O)/C([H])=C([H])/C([H])=C([H])/C([H])=C(\[H])c1sc([H])c([H])c1[H])C([H])([H])OC(=O)C([H])([H])C([H])(C([H])([H])[H])C([H])([H])[H]


 27 27  0  0  0  0  0  0  0  0999 V2000
   33.6106  -10.3856   37.1416 N   0  0  0  0  0  0  0  0  0  0  0  0
   34.7595  -10.5692   36.3502 C   0  0  0  0  0  0  0  0  0  0  0  0
   35.3144   -9.5605   35.8473 O   0  0  0  0  0  0  0  0  0  0  0  0
   33.1439  -11.2225   37.5656 H   0  0  0  0  0  0  0  0  0  0  0  0
   35.3087  -11.8804   36.1066 C   0  0  0  0  0  0  0  0  0  0  0  0
   35.6716  -12.7193   37.0337 C   0  0  0  0  0  0  0  0  0  0  0  0
   36.2248  -14.0421   36.7226 C   0  0  0  0  0  0  0  0  0  0  0  0
   36.1868  -15.0477   37.5485 C   0  0  0  0  0  0  0  0  0  0  0  0
   36.7513  -16.3688   37.2096 C   0  0  0  0  0  0  0  0  0  0  0  0
   36.6308  -16.8625   35.9987 C   0  0  0  0  0  0  0  0  0  0  0  0
   37.2023  -18.1909   35.6701 C   0  0  0  0  0  0  0  0  0  0  0  0
   37.2569  -19.2997   36.4706 C   0  0  0  0  0  0  0  0  0  0  0  0
   37.8255  -20.4030   35.9582 C   0  0  0  0  0  0  0  0  0  0  0  0
   38.3022  -20.3233   34.6770 C   0  0  0  0  0  0  0  0  0  0  0  0
   37.9442  -18.7207   34.2302 S   0  0  0  0  0  0  0  0  0  0  0  0
   33.0240   -9.0957   37.4112 C   0  0  0  0  0  0  0  0  0  0  0  0
   31.5069   -9.1110   37.4064 C   0  0  0  0  0  0  0  0  0  0  0  0
   29.8984  -10.9719   37.6563 C   0  0  0  0  0  0  0  0  0  0  0  0
   30.9850  -10.4635   37.1376 C   0  0  0  0  0  0  0  0  0  0  0  0
   29.0532  -10.2285   38.5931 C   0  0  0  0  0  0  0  0  0  0  0  0
   28.8232  -11.0035   39.7487 O   0  0  0  0  0  0  0  0  0  0  0  0
   28.2427  -12.2449   39.6534 C   0  0  0  0  0  0  0  0  0  0  0  0
   27.0722  -12.3534   39.2338 O   0  0  0  0  0  0  0  0  0  0  0  0
   28.9657  -13.4943   40.0381 C   0  0  0  0  0  0  0  0  0  0  0  0
   27.9960  -15.7723   39.6760 C   0  0  0  0  0  0  0  0  0  0  0  0
   27.9724  -14.5328   40.5122 C   0  0  0  0  0  0  0  0  0  0  0  0
   28.1763  -14.8950   41.9536 C   0  0  0  0  0  0  0  0  0  0  0  0
 25 26  1  0  0  0
 26 27  1  0  0  0
 26 24  1  0  0  0
 24 22  1  0  0  0
 22 23  2  0  0  0
 22 21  1  0  0  0
 21 20  1  0  0  0
 20 18  1  0  0  0
 18 19  2  0  0  0
 19 17  1  0  0  0
 17 16  1  0  0  0
 16  1  1  0  0  0
  1  2  1  0  0  0
  2  3  2  0  0  0
  2  5  1  0  0  0
  5  6  2  0  0  0
  6  7  1  0  0  0
  7  8  2  0  0  0
  8  9  1  0  0  0
  9 10  2  0  0  0
 10 11  1  0  0  0
 11 12  2  0  0  0
 12 13  1  0  0  0
 13 14  2  0  0  0
 14 15  1  0  0  0
 15 11  1  0  0  0
  1  4  1  0  0  0
M  END
> <minimizedAffinity>
-6.10425

> <CNNscore>
0.2521111071

> <CNNaffinity>
5.7181043625

> <CNN_VS>
1.4415975809

> <CNNaffinity_variance>
0.0640153438

$$$$
[H]/C(=C(\[H])C([H])([H])C([H])([H])N([H])C(=O)/C([H])=C([H])/C([H])=C([H])/C([H])=C(\[H])c1sc([H])c([H])c1[H])C([H])([H])OC(=O)C([H])([H])C([H])(C([H])([H])[H])C([H])([H])[H]


 27 27  0  0  0  0  0  0  0  0999 V2000
   37.6456  -18.1868   35.5374 N   0  0  0  0  0  0  0  0  0  0  0  0
   38.5841  -19.2266   35.6705 C   0  0  0  0  0  0  0  0  0  0  0  0
   38.8365  -19.9444   34.6709 O   0  0  0  0  0  0  0  0  0  0  0  0
   37.4317  -17.5830   36.3668 H   0  0  0  0  0  0  0  0  0  0  0  0
   39.2567  -19.4831   36.9202 C   0  0  0  0  0  0  0  0  0  0  0  0
   40.5435  -19.6259   37.0575 C   0  0  0  0  0  0  0  0  0  0  0  0
   41.1703  -19.8858   38.3582 C   0  0  0  0  0  0  0  0  0  0  0  0
   42.2930  -19.3446   38.7343 C   0  0  0  0  0  0  0  0  0  0  0  0
   42.9018  -19.6237   40.0497 C   0  0  0  0  0  0  0  0  0  0  0  0
   42.1755  -19.6155   41.1437 C   0  0  0  0  0  0  0  0  0  0  0  0
   42.7984  -19.8976   42.4596 C   0  0  0  0  0  0  0  0  0  0  0  0
   42.5393  -19.2861   43.6564 C   0  0  0  0  0  0  0  0  0  0  0  0
   43.2302  -19.7091   44.7274 C   0  0  0  0  0  0  0  0  0  0  0  0
   44.1353  -20.7173   44.5293 C   0  0  0  0  0  0  0  0  0  0  0  0
   43.9951  -21.0414   42.8646 S   0  0  0  0  0  0  0  0  0  0  0  0
   36.9466  -17.8935   34.3101 C   0  0  0  0  0  0  0  0  0  0  0  0
   35.7731  -18.8190   34.0492 C   0  0  0  0  0  0  0  0  0  0  0  0
   33.8679  -17.2689   34.3326 C   0  0  0  0  0  0  0  0  0  0  0  0
   34.5894  -18.0683   33.5919 C   0  0  0  0  0  0  0  0  0  0  0  0
   34.1665  -17.0247   35.7454 C   0  0  0  0  0  0  0  0  0  0  0  0
   33.5303  -15.8403   36.1712 O   0  0  0  0  0  0  0  0  0  0  0  0
   34.1745  -14.6303   36.0827 C   0  0  0  0  0  0  0  0  0  0  0  0
   33.5150  -13.5710   36.1142 O   0  0  0  0  0  0  0  0  0  0  0  0
   35.6586  -14.5255   35.9477 C   0  0  0  0  0  0  0  0  0  0  0  0
   36.6757  -15.6848   37.9181 C   0  0  0  0  0  0  0  0  0  0  0  0
   36.2855  -14.3725   37.3165 C   0  0  0  0  0  0  0  0  0  0  0  0
   37.4730  -13.4561   37.2963 C   0  0  0  0  0  0  0  0  0  0  0  0
 25 26  1  0  0  0
 26 27  1  0  0  0
 26 24  1  0  0  0
 24 22  1  0  0  0
 22 23  2  0  0  0
 22 21  1  0  0  0
 21 20  1  0  0  0
 20 18  1  0  0  0
 18 19  2  0  0  0
 19 17  1  0  0  0
 17 16  1  0  0  0
 16  1  1  0  0  0
  1  2  1  0  0  0
  2  3  2  0  0  0
  2  5  1  0  0  0
  5  6  2  0  0  0
  6  7  1  0  0  0
  7  8  2  0  0  0
  8  9  1  0  0  0
  9 10  2  0  0  0
 10 11  1  0  0  0
 11 12  2  0  0  0
 12 13  1  0  0  0
 13 14  2  0  0  0
 14 15  1  0  0  0
 15 11  1  0  0  0
  1  4  1  0  0  0
M  END
> <minimizedAffinity>
-5.17626

> <CNNscore>
0.2494022697

> <CNNaffinity>
4.7531085014

> <CNN_VS>
1.1854360104

> <CNNaffinity_variance>
0.2824487686

$$$$
[H]Oc1nc(N([H])c2c([H])c(OC([H])([H])[H])c([H])c([H])c2OC([H])([H])[H])c([H])c2c([H])c([H])c([H])c([H])c12


 24 26  0  0  0  0  0  0  0  0999 V2000
   34.0870  -11.8606   37.4340 N   0  0  0  0  0  0  0  0  0  0  0  0
   34.9443  -11.3027   37.8048 H   0  0  0  0  0  0  0  0  0  0  0  0
   34.3691  -13.1648   37.0367 C   0  0  0  0  0  0  0  0  0  0  0  0
   35.5440  -13.7731   37.4782 C   0  0  0  0  0  0  0  0  0  0  0  0
   35.8679  -15.0671   37.1104 C   0  0  0  0  0  0  0  0  0  0  0  0
   37.0284  -15.6776   37.5423 C   0  0  0  0  0  0  0  0  0  0  0  0
   37.3054  -16.9660   37.1487 C   0  0  0  0  0  0  0  0  0  0  0  0
   36.4510  -17.6483   36.3389 C   0  0  0  0  0  0  0  0  0  0  0  0
   35.2964  -17.0454   35.9071 C   0  0  0  0  0  0  0  0  0  0  0  0
   35.0124  -15.7630   36.2939 C   0  0  0  0  0  0  0  0  0  0  0  0
   33.8550  -15.1479   35.8658 C   0  0  0  0  0  0  0  0  0  0  0  0
   32.9869  -15.8443   35.0416 O   0  0  0  0  0  0  0  0  0  0  0  0
   33.6032  -13.8957   36.2587 N   0  0  0  0  0  0  0  0  0  0  0  0
   32.2108  -16.3085   35.4891 H   0  0  0  0  0  0  0  0  0  0  0  0
   30.4436  -10.9749   37.4956 C   0  0  0  0  0  0  0  0  0  0  0  0
   30.5605   -9.6104   37.4471 C   0  0  0  0  0  0  0  0  0  0  0  0
   31.7890   -8.9877   37.3955 C   0  0  0  0  0  0  0  0  0  0  0  0
   32.9498   -9.7457   37.3919 C   0  0  0  0  0  0  0  0  0  0  0  0
   32.8888  -11.1387   37.4399 C   0  0  0  0  0  0  0  0  0  0  0  0
   31.6332  -11.7140   37.4905 C   0  0  0  0  0  0  0  0  0  0  0  0
   28.1113  -11.1029   38.2639 C   0  0  0  0  0  0  0  0  0  0  0  0
   29.1989  -11.5933   37.5474 O   0  0  0  0  0  0  0  0  0  0  0  0
   34.1967   -9.1515   37.3408 O   0  0  0  0  0  0  0  0  0  0  0  0
   34.5776   -8.4264   36.1764 C   0  0  0  0  0  0  0  0  0  0  0  0
 21 22  1  0  0  0
 22 15  1  0  0  0
 15 16  2  0  0  0
 16 17  1  0  0  0
 17 18  2  0  0  0
 18 23  1  0  0  0
 23 24  1  0  0  0
 18 19  1  0  0  0
 19  1  1  0  0  0
  1  3  1  0  0  0
  3  4  2  0  0  0
  4  5  1  0  0  0
  5  6  2  0  0  0
  6  7  1  0  0  0
  7  8  2  0  0  0
  8  9  1  0  0  0
  9 10  2  0  0  0
 10 11  1  0  0  0
 11 12  1  0  0  0
 11 13  2  0  0  0
 19 20  2  0  0  0
 20 15  1  0  0  0
 13  3  1  0  0  0
 10  5  1  0  0  0
  1  2  1  0  0  0
 12 14  1  0  0  0
M  END
> <minimizedAffinity>
-8.15568

> <CNNscore>
0.6400108337

> <CNNaffinity>
5.6971635818

> <CNN_VS>
3.6462464333

> <CNNaffinity_variance>
0.1952951849

$$$$
[H]Oc1nc(N([H])c2c([H])c(OC([H])([H])[H])c([H])c([H])c2OC([H])([H])[H])c([H])c2c([H])c([H])c([H])c([H])c12


 24 26  0  0  0  0  0  0  0  0999 V2000
   32.4790  -11.7108   37.0068 N   0  0  0  0  0  0  0  0  0  0  0  0
   32.8484  -10.7900   36.5602 H   0  0  0  0  0  0  0  0  0  0  0  0
   33.3037  -12.8175   36.8248 C   0  0  0  0  0  0  0  0  0  0  0  0
   34.5677  -12.8304   37.4143 C   0  0  0  0  0  0  0  0  0  0  0  0
   35.4231  -13.9073   37.2621 C   0  0  0  0  0  0  0  0  0  0  0  0
   36.6759  -13.9292   37.8418 C   0  0  0  0  0  0  0  0  0  0  0  0
   37.4893  -15.0234   37.6607 C   0  0  0  0  0  0  0  0  0  0  0  0
   37.0763  -16.0858   36.9179 C   0  0  0  0  0  0  0  0  0  0  0  0
   35.8319  -16.0685   36.3398 C   0  0  0  0  0  0  0  0  0  0  0  0
   35.0153  -14.9834   36.5146 C   0  0  0  0  0  0  0  0  0  0  0  0
   33.7630  -14.9556   35.9383 C   0  0  0  0  0  0  0  0  0  0  0  0
   33.3448  -16.0382   35.1825 O   0  0  0  0  0  0  0  0  0  0  0  0
   32.9872  -13.8838   36.1253 N   0  0  0  0  0  0  0  0  0  0  0  0
   32.7771  -16.7272   35.6524 H   0  0  0  0  0  0  0  0  0  0  0  0
   29.4474  -12.4030   39.1030 C   0  0  0  0  0  0  0  0  0  0  0  0
   28.8034  -11.2045   38.9392 C   0  0  0  0  0  0  0  0  0  0  0  0
   29.3353  -10.1931   38.1686 C   0  0  0  0  0  0  0  0  0  0  0  0
   30.5543  -10.3743   37.5338 C   0  0  0  0  0  0  0  0  0  0  0  0
   31.2528  -11.5748   37.6664 C   0  0  0  0  0  0  0  0  0  0  0  0
   30.6767  -12.5569   38.4497 C   0  0  0  0  0  0  0  0  0  0  0  0
   27.6730  -14.0206   39.6331 C   0  0  0  0  0  0  0  0  0  0  0  0
   28.9020  -13.4171   39.8828 O   0  0  0  0  0  0  0  0  0  0  0  0
   31.1142   -9.3797   36.7542 O   0  0  0  0  0  0  0  0  0  0  0  0
   32.1562   -8.5732   37.2932 C   0  0  0  0  0  0  0  0  0  0  0  0
 21 22  1  0  0  0
 22 15  1  0  0  0
 15 16  2  0  0  0
 16 17  1  0  0  0
 17 18  2  0  0  0
 18 23  1  0  0  0
 23 24  1  0  0  0
 18 19  1  0  0  0
 19  1  1  0  0  0
  1  3  1  0  0  0
  3  4  2  0  0  0
  4  5  1  0  0  0
  5  6  2  0  0  0
  6  7  1  0  0  0
  7  8  2  0  0  0
  8  9  1  0  0  0
  9 10  2  0  0  0
 10 11  1  0  0  0
 11 12  1  0  0  0
 11 13  2  0  0  0
 19 20  2  0  0  0
 20 15  1  0  0  0
 13  3  1  0  0  0
 10  5  1  0  0  0
  1  2  1  0  0  0
 12 14  1  0  0  0
M  END
> <minimizedAffinity>
-8.11601

> <CNNscore>
0.6111087799

> <CNNaffinity>
5.4165682793

> <CNN_VS>
3.3101124763

> <CNNaffinity_variance>
0.2180654109

$$$$
[H]Oc1nc(N([H])c2c([H])c(OC([H])([H])[H])c([H])c([H])c2OC([H])([H])[H])c([H])c2c([H])c([H])c([H])c([H])c12


 24 26  0  0  0  0  0  0  0  0999 V2000
   36.0881  -18.5565   36.6785 N   0  0  0  0  0  0  0  0  0  0  0  0
   36.5219  -18.9457   35.7598 H   0  0  0  0  0  0  0  0  0  0  0  0
   36.0473  -19.4645   37.7331 C   0  0  0  0  0  0  0  0  0  0  0  0
   37.1921  -20.1968   38.0472 C   0  0  0  0  0  0  0  0  0  0  0  0
   37.2006  -21.1108   39.0860 C   0  0  0  0  0  0  0  0  0  0  0  0
   38.3287  -21.8401   39.4044 C   0  0  0  0  0  0  0  0  0  0  0  0
   38.2864  -22.7368   40.4465 C   0  0  0  0  0  0  0  0  0  0  0  0
   37.1474  -22.9153   41.1689 C   0  0  0  0  0  0  0  0  0  0  0  0
   36.0236  -22.1925   40.8560 C   0  0  0  0  0  0  0  0  0  0  0  0
   36.0565  -21.2976   39.8202 C   0  0  0  0  0  0  0  0  0  0  0  0
   34.9331  -20.5663   39.4974 C   0  0  0  0  0  0  0  0  0  0  0  0
   33.7748  -20.7497   40.2342 O   0  0  0  0  0  0  0  0  0  0  0  0
   34.9935  -19.7001   38.4816 N   0  0  0  0  0  0  0  0  0  0  0  0
   33.6079  -20.0984   40.9864 H   0  0  0  0  0  0  0  0  0  0  0  0
   35.8694  -14.8380   37.1119 C   0  0  0  0  0  0  0  0  0  0  0  0
   34.7471  -14.6067   36.3603 C   0  0  0  0  0  0  0  0  0  0  0  0
   34.0739  -15.6287   35.7264 C   0  0  0  0  0  0  0  0  0  0  0  0
   34.5293  -16.9331   35.8402 C   0  0  0  0  0  0  0  0  0  0  0  0
   35.6671  -17.2252   36.5930 C   0  0  0  0  0  0  0  0  0  0  0  0
   36.3056  -16.1653   37.2087 C   0  0  0  0  0  0  0  0  0  0  0  0
   37.9011  -13.5416   37.6001 C   0  0  0  0  0  0  0  0  0  0  0  0
   36.5414  -13.7995   37.7476 O   0  0  0  0  0  0  0  0  0  0  0  0
   33.8766  -17.9799   35.2167 O   0  0  0  0  0  0  0  0  0  0  0  0
   32.6288  -18.4312   35.7324 C   0  0  0  0  0  0  0  0  0  0  0  0
 21 22  1  0  0  0
 22 15  1  0  0  0
 15 16  2  0  0  0
 16 17  1  0  0  0
 17 18  2  0  0  0
 18 23  1  0  0  0
 23 24  1  0  0  0
 18 19  1  0  0  0
 19  1  1  0  0  0
  1  3  1  0  0  0
  3  4  2  0  0  0
  4  5  1  0  0  0
  5  6  2  0  0  0
  6  7  1  0  0  0
  7  8  2  0  0  0
  8  9  1  0  0  0
  9 10  2  0  0  0
 10 11  1  0  0  0
 11 12  1  0  0  0
 11 13  2  0  0  0
 19 20  2  0  0  0
 20 15  1  0  0  0
 13  3  1  0  0  0
 10  5  1  0  0  0
  1  2  1  0  0  0
 12 14  1  0  0  0
M  END
> <minimizedAffinity>
-5.65132

> <CNNscore>
0.6075138450

> <CNNaffinity>
4.4061403275

> <CNN_VS>
2.6767911911

> <CNNaffinity_variance>
0.3124864995

$$$$
[H]Oc1nc(N([H])c2c([H])c(OC([H])([H])[H])c([H])c([H])c2OC([H])([H])[H])c([H])c2c([H])c([H])c([H])c([H])c12


 24 26  0  0  0  0  0  0  0  0999 V2000
   33.9622  -12.8737   37.3385 N   0  0  0  0  0  0  0  0  0  0  0  0
   34.5894  -11.9944   37.2071 H   0  0  0  0  0  0  0  0  0  0  0  0
   32.7653  -12.6396   38.0100 C   0  0  0  0  0  0  0  0  0  0  0  0
   31.6889  -12.0904   37.3137 C   0  0  0  0  0  0  0  0  0  0  0  0
   30.4794  -11.8396   37.9375 C   0  0  0  0  0  0  0  0  0  0  0  0
   29.4083  -11.2963   37.2566 C   0  0  0  0  0  0  0  0  0  0  0  0
   28.2268  -11.0657   37.9218 C   0  0  0  0  0  0  0  0  0  0  0  0
   28.0983  -11.3659   39.2425 C   0  0  0  0  0  0  0  0  0  0  0  0
   29.1603  -11.9061   39.9233 C   0  0  0  0  0  0  0  0  0  0  0  0
   30.3404  -12.1391   39.2693 C   0  0  0  0  0  0  0  0  0  0  0  0
   31.4137  -12.6816   39.9439 C   0  0  0  0  0  0  0  0  0  0  0  0
   31.2806  -12.9863   41.2882 O   0  0  0  0  0  0  0  0  0  0  0  0
   32.5535  -12.8982   39.2807 N   0  0  0  0  0  0  0  0  0  0  0  0
   31.0473  -13.9411   41.5159 H   0  0  0  0  0  0  0  0  0  0  0  0
   34.3093  -16.2409   35.7247 C   0  0  0  0  0  0  0  0  0  0  0  0
   35.6754  -16.3456   35.7539 C   0  0  0  0  0  0  0  0  0  0  0  0
   36.4692  -15.3510   36.2831 C   0  0  0  0  0  0  0  0  0  0  0  0
   35.8883  -14.2055   36.8050 C   0  0  0  0  0  0  0  0  0  0  0  0
   34.5021  -14.0468   36.8008 C   0  0  0  0  0  0  0  0  0  0  0  0
   33.7512  -15.0727   36.2590 C   0  0  0  0  0  0  0  0  0  0  0  0
   34.0035  -18.2925   34.4042 C   0  0  0  0  0  0  0  0  0  0  0  0
   33.5174  -17.2505   35.1883 O   0  0  0  0  0  0  0  0  0  0  0  0
   36.6567  -13.1902   37.3428 O   0  0  0  0  0  0  0  0  0  0  0  0
   38.0279  -13.4336   37.6380 C   0  0  0  0  0  0  0  0  0  0  0  0
 21 22  1  0  0  0
 22 15  1  0  0  0
 15 16  2  0  0  0
 16 17  1  0  0  0
 17 18  2  0  0  0
 18 23  1  0  0  0
 23 24  1  0  0  0
 18 19  1  0  0  0
 19  1  1  0  0  0
  1  3  1  0  0  0
  3  4  2  0  0  0
  4  5  1  0  0  0
  5  6  2  0  0  0
  6  7  1  0  0  0
  7  8  2  0  0  0
  8  9  1  0  0  0
  9 10  2  0  0  0
 10 11  1  0  0  0
 11 12  1  0  0  0
 11 13  2  0  0  0
 19 20  2  0  0  0
 20 15  1  0  0  0
 13  3  1  0  0  0
 10  5  1  0  0  0
  1  2  1  0  0  0
 12 14  1  0  0  0
M  END
> <minimizedAffinity>
-7.98982

> <CNNscore>
0.5728113055

> <CNNaffinity>
5.3017988205

> <CNN_VS>
3.0369303226

> <CNNaffinity_variance>
0.3233965039

$$$$
[H]Oc1nc(N([H])c2c([H])c(OC([H])([H])[H])c([H])c([H])c2OC([H])([H])[H])c([H])c2c([H])c([H])c([H])c([H])c12


 24 26  0  0  0  0  0  0  0  0999 V2000
   34.5003  -11.3482   37.0034 N   0  0  0  0  0  0  0  0  0  0  0  0
   35.2594  -10.5704   36.9543 H   0  0  0  0  0  0  0  0  0  0  0  0
   34.9844  -12.6443   36.8483 C   0  0  0  0  0  0  0  0  0  0  0  0
   34.1414  -13.6304   36.3363 C   0  0  0  0  0  0  0  0  0  0  0  0
   34.5767  -14.9326   36.1640 C   0  0  0  0  0  0  0  0  0  0  0  0
   33.7497  -15.9154   35.6578 C   0  0  0  0  0  0  0  0  0  0  0  0
   34.2297  -17.1953   35.5055 C   0  0  0  0  0  0  0  0  0  0  0  0
   35.5094  -17.5068   35.8467 C   0  0  0  0  0  0  0  0  0  0  0  0
   36.3350  -16.5331   36.3502 C   0  0  0  0  0  0  0  0  0  0  0  0
   35.8657  -15.2562   36.5053 C   0  0  0  0  0  0  0  0  0  0  0  0
   36.6868  -14.2703   37.0102 C   0  0  0  0  0  0  0  0  0  0  0  0
   37.9890  -14.5898   37.3569 O   0  0  0  0  0  0  0  0  0  0  0  0
   36.2025  -13.0328   37.1511 N   0  0  0  0  0  0  0  0  0  0  0  0
   38.7010  -14.4024   36.6670 H   0  0  0  0  0  0  0  0  0  0  0  0
   30.8037  -11.1765   37.6104 C   0  0  0  0  0  0  0  0  0  0  0  0
   30.6577   -9.8139   37.6203 C   0  0  0  0  0  0  0  0  0  0  0  0
   31.7292   -8.9670   37.4351 C   0  0  0  0  0  0  0  0  0  0  0  0
   32.9973   -9.4890   37.2317 C   0  0  0  0  0  0  0  0  0  0  0  0
   33.2028  -10.8688   37.2121 C   0  0  0  0  0  0  0  0  0  0  0  0
   32.0961  -11.6744   37.4026 C   0  0  0  0  0  0  0  0  0  0  0  0
   29.2660  -12.4531   39.0428 C   0  0  0  0  0  0  0  0  0  0  0  0
   29.7158  -12.0223   37.7983 O   0  0  0  0  0  0  0  0  0  0  0  0
   34.0919   -8.6665   37.0429 O   0  0  0  0  0  0  0  0  0  0  0  0
   34.1817   -7.8846   35.8566 C   0  0  0  0  0  0  0  0  0  0  0  0
 21 22  1  0  0  0
 22 15  1  0  0  0
 15 16  2  0  0  0
 16 17  1  0  0  0
 17 18  2  0  0  0
 18 23  1  0  0  0
 23 24  1  0  0  0
 18 19  1  0  0  0
 19  1  1  0  0  0
  1  3  1  0  0  0
  3  4  2  0  0  0
  4  5  1  0  0  0
  5  6  2  0  0  0
  6  7  1  0  0  0
  7  8  2  0  0  0
  8  9  1  0  0  0
  9 10  2  0  0  0
 10 11  1  0  0  0
 11 12  1  0  0  0
 11 13  2  0  0  0
 19 20  2  0  0  0
 20 15  1  0  0  0
 13  3  1  0  0  0
 10  5  1  0  0  0
  1  2  1  0  0  0
 12 14  1  0  0  0
M  END
> <minimizedAffinity>
-8.26524

> <CNNscore>
0.5345160961

> <CNNaffinity>
5.7996759415

> <CNN_VS>
3.1000201702

> <CNNaffinity_variance>
0.2339607179

$$$$
[H]Oc1nc(N([H])c2c([H])c(OC([H])([H])[H])c([H])c([H])c2OC([H])([H])[H])c([H])c2c([H])c([H])c([H])c([H])c12


 24 26  0  0  0  0  0  0  0  0999 V2000
   35.4681  -15.8507   36.6224 N   0  0  0  0  0  0  0  0  0  0  0  0
   36.3506  -16.0436   37.2288 H   0  0  0  0  0  0  0  0  0  0  0  0
   35.0082  -16.9476   35.8989 C   0  0  0  0  0  0  0  0  0  0  0  0
   33.6562  -17.2853   35.9580 C   0  0  0  0  0  0  0  0  0  0  0  0
   33.1519  -18.3663   35.2568 C   0  0  0  0  0  0  0  0  0  0  0  0
   31.8154  -18.7082   35.3091 C   0  0  0  0  0  0  0  0  0  0  0  0
   31.3629  -19.7922   34.5937 C   0  0  0  0  0  0  0  0  0  0  0  0
   32.2146  -20.5331   33.8342 C   0  0  0  0  0  0  0  0  0  0  0  0
   33.5439  -20.1969   33.7792 C   0  0  0  0  0  0  0  0  0  0  0  0
   34.0033  -19.1194   34.4882 C   0  0  0  0  0  0  0  0  0  0  0  0
   35.3370  -18.7729   34.4399 C   0  0  0  0  0  0  0  0  0  0  0  0
   36.2021  -19.5285   33.6662 O   0  0  0  0  0  0  0  0  0  0  0  0
   35.7579  -17.7166   35.1420 N   0  0  0  0  0  0  0  0  0  0  0  0
   36.3955  -19.1868   32.7368 H   0  0  0  0  0  0  0  0  0  0  0  0
   33.1958  -12.8769   36.8584 C   0  0  0  0  0  0  0  0  0  0  0  0
   34.1461  -11.8896   36.8722 C   0  0  0  0  0  0  0  0  0  0  0  0
   35.4926  -12.1763   36.8068 C   0  0  0  0  0  0  0  0  0  0  0  0
   35.9169  -13.4935   36.7244 C   0  0  0  0  0  0  0  0  0  0  0  0
   34.9921  -14.5380   36.7067 C   0  0  0  0  0  0  0  0  0  0  0  0
   33.6543  -14.1976   36.7744 C   0  0  0  0  0  0  0  0  0  0  0  0
   31.3169  -11.4554   37.5623 C   0  0  0  0  0  0  0  0  0  0  0  0
   31.8394  -12.5768   36.9248 O   0  0  0  0  0  0  0  0  0  0  0  0
   37.2598  -13.8138   36.6574 O   0  0  0  0  0  0  0  0  0  0  0  0
   38.1051  -13.5152   37.7633 C   0  0  0  0  0  0  0  0  0  0  0  0
 21 22  1  0  0  0
 22 15  1  0  0  0
 15 16  2  0  0  0
 16 17  1  0  0  0
 17 18  2  0  0  0
 18 23  1  0  0  0
 23 24  1  0  0  0
 18 19  1  0  0  0
 19  1  1  0  0  0
  1  3  1  0  0  0
  3  4  2  0  0  0
  4  5  1  0  0  0
  5  6  2  0  0  0
  6  7  1  0  0  0
  7  8  2  0  0  0
  8  9  1  0  0  0
  9 10  2  0  0  0
 10 11  1  0  0  0
 11 12  1  0  0  0
 11 13  2  0  0  0
 19 20  2  0  0  0
 20 15  1  0  0  0
 13  3  1  0  0  0
 10  5  1  0  0  0
  1  2  1  0  0  0
 12 14  1  0  0  0
M  END
> <minimizedAffinity>
-7.28842

> <CNNscore>
0.5164644718

> <CNNaffinity>
5.1235294342

> <CNN_VS>
2.6461210251

> <CNNaffinity_variance>
0.2068333924

$$$$
[H]Oc1nc(N([H])c2c([H])c(OC([H])([H])[H])c([H])c([H])c2OC([H])([H])[H])c([H])c2c([H])c([H])c([H])c([H])c12


 24 26  0  0  0  0  0  0  0  0999 V2000
   34.8887  -14.1517   37.6122 N   0  0  0  0  0  0  0  0  0  0  0  0
   35.1788  -14.3774   38.6362 H   0  0  0  0  0  0  0  0  0  0  0  0
   34.9217  -15.2400   36.7446 C   0  0  0  0  0  0  0  0  0  0  0  0
   36.1084  -15.9574   36.5954 C   0  0  0  0  0  0  0  0  0  0  0  0
   36.1906  -17.0461   35.7453 C   0  0  0  0  0  0  0  0  0  0  0  0
   37.3607  -17.7624   35.5911 C   0  0  0  0  0  0  0  0  0  0  0  0
   37.3914  -18.8371   34.7335 C   0  0  0  0  0  0  0  0  0  0  0  0
   36.2839  -19.2050   34.0342 C   0  0  0  0  0  0  0  0  0  0  0  0
   35.1186  -18.4959   34.1842 C   0  0  0  0  0  0  0  0  0  0  0  0
   35.0787  -17.4245   35.0358 C   0  0  0  0  0  0  0  0  0  0  0  0
   33.9131  -16.7052   35.1941 C   0  0  0  0  0  0  0  0  0  0  0  0
   32.7869  -17.0814   34.4812 O   0  0  0  0  0  0  0  0  0  0  0  0
   33.9027  -15.6640   36.0318 N   0  0  0  0  0  0  0  0  0  0  0  0
   32.1248  -17.6741   34.9588 H   0  0  0  0  0  0  0  0  0  0  0  0
   34.8672  -10.6238   36.3407 C   0  0  0  0  0  0  0  0  0  0  0  0
   33.7829  -10.1582   37.0375 C   0  0  0  0  0  0  0  0  0  0  0  0
   33.0726  -10.9650   37.9001 C   0  0  0  0  0  0  0  0  0  0  0  0
   33.4499  -12.2867   38.0811 C   0  0  0  0  0  0  0  0  0  0  0  0
   34.5462  -12.8125   37.3968 C   0  0  0  0  0  0  0  0  0  0  0  0
   35.2247  -11.9626   36.5440 C   0  0  0  0  0  0  0  0  0  0  0  0
   35.4528   -8.4157   35.4308 C   0  0  0  0  0  0  0  0  0  0  0  0
   35.5772   -9.8013   35.4726 O   0  0  0  0  0  0  0  0  0  0  0  0
   32.7584  -13.1212   38.9389 O   0  0  0  0  0  0  0  0  0  0  0  0
   31.3663  -12.9090   39.1484 C   0  0  0  0  0  0  0  0  0  0  0  0
 21 22  1  0  0  0
 22 15  1  0  0  0
 15 16  2  0  0  0
 16 17  1  0  0  0
 17 18  2  0  0  0
 18 23  1  0  0  0
 23 24  1  0  0  0
 18 19  1  0  0  0
 19  1  1  0  0  0
  1  3  1  0  0  0
  3  4  2  0  0  0
  4  5  1  0  0  0
  5  6  2  0  0  0
  6  7  1  0  0  0
  7  8  2  0  0  0
  8  9  1  0  0  0
  9 10  2  0  0  0
 10 11  1  0  0  0
 11 12  1  0  0  0
 11 13  2  0  0  0
 19 20  2  0  0  0
 20 15  1  0  0  0
 13  3  1  0  0  0
 10  5  1  0  0  0
  1  2  1  0  0  0
 12 14  1  0  0  0
M  END
> <minimizedAffinity>
-7.15166

> <CNNscore>
0.4782167077

> <CNNaffinity>
5.4138364792

> <CNN_VS>
2.5889871120

> <CNNaffinity_variance>
0.1936607659

$$$$
[H]Oc1nc(N([H])c2c([H])c(OC([H])([H])[H])c([H])c([H])c2OC([H])([H])[H])c([H])c2c([H])c([H])c([H])c([H])c12


 24 26  0  0  0  0  0  0  0  0999 V2000
   35.2997  -14.1881   37.5245 N   0  0  0  0  0  0  0  0  0  0  0  0
   35.6957  -14.3468   38.5253 H   0  0  0  0  0  0  0  0  0  0  0  0
   35.3418  -15.3075   36.6978 C   0  0  0  0  0  0  0  0  0  0  0  0
   34.1464  -15.8781   36.2612 C   0  0  0  0  0  0  0  0  0  0  0  0
   34.1369  -16.9909   35.4388 C   0  0  0  0  0  0  0  0  0  0  0  0
   32.9588  -17.5627   35.0015 C   0  0  0  0  0  0  0  0  0  0  0  0
   33.0025  -18.6686   34.1849 C   0  0  0  0  0  0  0  0  0  0  0  0
   34.1914  -19.2075   33.8014 C   0  0  0  0  0  0  0  0  0  0  0  0
   35.3649  -18.6425   34.2336 C   0  0  0  0  0  0  0  0  0  0  0  0
   35.3311  -17.5414   35.0468 C   0  0  0  0  0  0  0  0  0  0  0  0
   36.5043  -16.9659   35.4868 C   0  0  0  0  0  0  0  0  0  0  0  0
   37.7133  -17.5162   35.0951 O   0  0  0  0  0  0  0  0  0  0  0  0
   36.4417  -15.8920   36.2796 N   0  0  0  0  0  0  0  0  0  0  0  0
   38.1655  -17.0963   34.2970 H   0  0  0  0  0  0  0  0  0  0  0  0
   34.9878  -10.6727   36.2565 C   0  0  0  0  0  0  0  0  0  0  0  0
   33.8271  -10.3233   36.8957 C   0  0  0  0  0  0  0  0  0  0  0  0
   33.1579  -11.2029   37.7192 C   0  0  0  0  0  0  0  0  0  0  0  0
   33.6571  -12.4808   37.9187 C   0  0  0  0  0  0  0  0  0  0  0  0
   34.8352  -12.8891   37.2925 C   0  0  0  0  0  0  0  0  0  0  0  0
   35.4677  -11.9698   36.4772 C   0  0  0  0  0  0  0  0  0  0  0  0
   35.4208   -8.4057   35.4083 C   0  0  0  0  0  0  0  0  0  0  0  0
   35.6552   -9.7774   35.4275 O   0  0  0  0  0  0  0  0  0  0  0  0
   33.0097  -13.3861   38.7383 O   0  0  0  0  0  0  0  0  0  0  0  0
   31.7544  -13.0361   39.3113 C   0  0  0  0  0  0  0  0  0  0  0  0
 21 22  1  0  0  0
 22 15  1  0  0  0
 15 16  2  0  0  0
 16 17  1  0  0  0
 17 18  2  0  0  0
 18 23  1  0  0  0
 23 24  1  0  0  0
 18 19  1  0  0  0
 19  1  1  0  0  0
  1  3  1  0  0  0
  3  4  2  0  0  0
  4  5  1  0  0  0
  5  6  2  0  0  0
  6  7  1  0  0  0
  7  8  2  0  0  0
  8  9  1  0  0  0
  9 10  2  0  0  0
 10 11  1  0  0  0
 11 12  1  0  0  0
 11 13  2  0  0  0
 19 20  2  0  0  0
 20 15  1  0  0  0
 13  3  1  0  0  0
 10  5  1  0  0  0
  1  2  1  0  0  0
 12 14  1  0  0  0
M  END
> <minimizedAffinity>
-6.97149

> <CNNscore>
0.4757111371

> <CNNaffinity>
5.3391876221

> <CNN_VS>
2.5399110317

> <CNNaffinity_variance>
0.1246682629

$$$$
[H]Oc1nc(N([H])c2c([H])c(OC([H])([H])[H])c([H])c([H])c2OC([H])([H])[H])c([H])c2c([H])c([H])c([H])c([H])c12


 24 26  0  0  0  0  0  0  0  0999 V2000
   34.2961  -18.8296   35.5779 N   0  0  0  0  0  0  0  0  0  0  0  0
   34.5836  -19.1391   34.5753 H   0  0  0  0  0  0  0  0  0  0  0  0
   34.5436  -17.4905   35.8670 C   0  0  0  0  0  0  0  0  0  0  0  0
   35.7632  -17.1305   36.4399 C   0  0  0  0  0  0  0  0  0  0  0  0
   36.0553  -15.8129   36.7452 C   0  0  0  0  0  0  0  0  0  0  0  0
   37.2596  -15.4470   37.3124 C   0  0  0  0  0  0  0  0  0  0  0  0
   37.5022  -14.1235   37.5973 C   0  0  0  0  0  0  0  0  0  0  0  0
   36.5712  -13.1687   37.3277 C   0  0  0  0  0  0  0  0  0  0  0  0
   35.3727  -13.5278   36.7640 C   0  0  0  0  0  0  0  0  0  0  0  0
   35.1225  -14.8430   36.4770 C   0  0  0  0  0  0  0  0  0  0  0  0
   33.9216  -15.2146   35.9105 C   0  0  0  0  0  0  0  0  0  0  0  0
   32.9755  -14.2409   35.6370 O   0  0  0  0  0  0  0  0  0  0  0  0
   33.7041  -16.5053   35.6410 N   0  0  0  0  0  0  0  0  0  0  0  0
   32.9567  -13.8784   34.6956 H   0  0  0  0  0  0  0  0  0  0  0  0
   33.7230  -21.3524   38.2928 C   0  0  0  0  0  0  0  0  0  0  0  0
   32.5523  -21.8937   37.8298 C   0  0  0  0  0  0  0  0  0  0  0  0
   31.9591  -21.4547   36.6658 C   0  0  0  0  0  0  0  0  0  0  0  0
   32.5478  -20.4384   35.9292 C   0  0  0  0  0  0  0  0  0  0  0  0
   33.7400  -19.8517   36.3546 C   0  0  0  0  0  0  0  0  0  0  0  0
   34.2942  -20.3277   37.5277 C   0  0  0  0  0  0  0  0  0  0  0  0
   33.9499  -21.3718   40.7411 C   0  0  0  0  0  0  0  0  0  0  0  0
   34.3134  -21.8028   39.4687 O   0  0  0  0  0  0  0  0  0  0  0  0
   31.9779  -19.9759   34.7580 O   0  0  0  0  0  0  0  0  0  0  0  0
   30.8134  -19.1596   34.8226 C   0  0  0  0  0  0  0  0  0  0  0  0
 21 22  1  0  0  0
 22 15  1  0  0  0
 15 16  2  0  0  0
 16 17  1  0  0  0
 17 18  2  0  0  0
 18 23  1  0  0  0
 23 24  1  0  0  0
 18 19  1  0  0  0
 19  1  1  0  0  0
  1  3  1  0  0  0
  3  4  2  0  0  0
  4  5  1  0  0  0
  5  6  2  0  0  0
  6  7  1  0  0  0
  7  8  2  0  0  0
  8  9  1  0  0  0
  9 10  2  0  0  0
 10 11  1  0  0  0
 11 12  1  0  0  0
 11 13  2  0  0  0
 19 20  2  0  0  0
 20 15  1  0  0  0
 13  3  1  0  0  0
 10  5  1  0  0  0
  1  2  1  0  0  0
 12 14  1  0  0  0
M  END
> <minimizedAffinity>
-6.56171

> <CNNscore>
0.4639509618

> <CNNaffinity>
4.4724760056

> <CNN_VS>
2.0750095844

> <CNNaffinity_variance>
0.2261480987

$$$$
[H]Oc1c([H])c2c(c([H])c1O[H])[C@]1([H])c3c(sc(Cl)c3[H])C([H])([H])N([H])[C@@]1([H])C([H])([H])C2([H])[H]


 23 26  0  0  0  0  0  0  0  0999 V2000
   36.5711  -24.5452   38.0639 O   0  0  0  0  0  0  0  0  0  0  0  0
   35.8027  -23.4484   37.7215 C   0  0  0  0  0  0  0  0  0  0  0  0
   36.1753  -22.2146   38.2278 C   0  0  0  0  0  0  0  0  0  0  0  0
   35.4297  -21.1283   37.9002 C   0  0  0  0  0  0  0  0  0  0  0  0
   34.3055  -21.2577   37.0668 C   0  0  0  0  0  0  0  0  0  0  0  0
   33.9500  -22.4785   36.5739 C   0  0  0  0  0  0  0  0  0  0  0  0
   34.7106  -23.6076   36.9037 C   0  0  0  0  0  0  0  0  0  0  0  0
   34.3962  -24.8714   36.4332 O   0  0  0  0  0  0  0  0  0  0  0  0
   33.6286  -19.9664   36.8326 C   0  0  0  0  0  0  0  0  0  0  0  0
   32.3445  -20.0270   36.0975 C   0  0  0  0  0  0  0  0  0  0  0  0
   31.3096  -20.8823   36.3554 C   0  0  0  0  0  0  0  0  0  0  0  0
   30.2089  -20.7757   35.5677 C   0  0  0  0  0  0  0  0  0  0  0  0
   28.7284  -21.7231   35.6460 Cl  0  0  0  0  0  0  0  0  0  0  0  0
   30.6080  -19.5144   34.4957 S   0  0  0  0  0  0  0  0  0  0  0  0
   32.1609  -19.1501   35.0705 C   0  0  0  0  0  0  0  0  0  0  0  0
   33.1658  -18.1223   34.6553 C   0  0  0  0  0  0  0  0  0  0  0  0
   33.9999  -17.8317   35.8168 N   0  0  0  0  0  0  0  0  0  0  0  0
   34.6284  -19.0717   36.2032 C   0  0  0  0  0  0  0  0  0  0  0  0
   35.7967  -18.8367   37.1435 C   0  0  0  0  0  0  0  0  0  0  0  0
   35.7499  -19.7447   38.3633 C   0  0  0  0  0  0  0  0  0  0  0  0
   37.3804  -24.4640   38.6628 H   0  0  0  0  0  0  0  0  0  0  0  0
   33.6232  -25.0737   35.8370 H   0  0  0  0  0  0  0  0  0  0  0  0
   34.6629  -17.0852   35.5533 H   0  0  0  0  0  0  0  0  0  0  0  0
  1  2  1  0  0  0
  2  3  2  0  0  0
  3  4  1  0  0  0
  4  5  2  0  0  0
  5  6  1  0  0  0
  6  7  2  0  0  0
  7  8  1  0  0  0
  5  9  1  0  0  0
  9 10  1  0  0  0
 10 11  1  0  0  0
 11 12  2  0  0  0
 12 13  1  0  0  0
 12 14  1  0  0  0
 14 15  1  0  0  0
 15 16  1  0  0  0
 16 17  1  0  0  0
 17 18  1  0  0  0
 18 19  1  0  0  0
 19 20  1  0  0  0
  7  2  1  0  0  0
 18  9  1  0  0  0
 20  4  1  0  0  0
 15 10  2  0  0  0
  1 21  1  0  0  0
  8 22  1  0  0  0
 17 23  1  0  0  0
M  END
> <minimizedAffinity>
-4.88978

> <CNNscore>
0.5889924765

> <CNNaffinity>
4.3616895676

> <CNN_VS>
2.5690023899

> <CNNaffinity_variance>
0.2618879676

$$$$
[H]Oc1c([H])c2c(c([H])c1O[H])[C@]1([H])c3c(sc(Cl)c3[H])C([H])([H])N([H])[C@@]1([H])C([H])([H])C2([H])[H]


 23 26  0  0  0  0  0  0  0  0999 V2000
   33.5017  -19.3294   36.7783 O   0  0  0  0  0  0  0  0  0  0  0  0
   34.8747  -19.4775   36.7202 C   0  0  0  0  0  0  0  0  0  0  0  0
   35.4706  -19.4960   35.4703 C   0  0  0  0  0  0  0  0  0  0  0  0
   36.8185  -19.6412   35.3977 C   0  0  0  0  0  0  0  0  0  0  0  0
   37.5877  -19.7703   36.5667 C   0  0  0  0  0  0  0  0  0  0  0  0
   36.9886  -19.7493   37.7916 C   0  0  0  0  0  0  0  0  0  0  0  0
   35.5986  -19.5999   37.8811 C   0  0  0  0  0  0  0  0  0  0  0  0
   34.9369  -19.5725   39.0971 O   0  0  0  0  0  0  0  0  0  0  0  0
   39.0278  -19.9211   36.2775 C   0  0  0  0  0  0  0  0  0  0  0  0
   39.8980  -20.2225   37.4372 C   0  0  0  0  0  0  0  0  0  0  0  0
   39.6671  -21.1757   38.3897 C   0  0  0  0  0  0  0  0  0  0  0  0
   40.5929  -21.3016   39.3750 C   0  0  0  0  0  0  0  0  0  0  0  0
   40.5817  -22.4223   40.7312 Cl  0  0  0  0  0  0  0  0  0  0  0  0
   41.7551  -20.1210   38.9816 S   0  0  0  0  0  0  0  0  0  0  0  0
   41.0418  -19.4946   37.5767 C   0  0  0  0  0  0  0  0  0  0  0  0
   41.4786  -18.4277   36.6231 C   0  0  0  0  0  0  0  0  0  0  0  0
   40.8680  -18.7197   35.3304 N   0  0  0  0  0  0  0  0  0  0  0  0
   39.4389  -18.7098   35.5291 C   0  0  0  0  0  0  0  0  0  0  0  0
   38.6920  -18.6217   34.2105 C   0  0  0  0  0  0  0  0  0  0  0  0
   37.5737  -19.6482   34.1089 C   0  0  0  0  0  0  0  0  0  0  0  0
   32.9390  -19.2367   35.9446 H   0  0  0  0  0  0  0  0  0  0  0  0
   35.3853  -19.6546   39.9837 H   0  0  0  0  0  0  0  0  0  0  0  0
   41.2061  -18.0172   34.6531 H   0  0  0  0  0  0  0  0  0  0  0  0
  1  2  1  0  0  0
  2  3  2  0  0  0
  3  4  1  0  0  0
  4  5  2  0  0  0
  5  6  1  0  0  0
  6  7  2  0  0  0
  7  8  1  0  0  0
  5  9  1  0  0  0
  9 10  1  0  0  0
 10 11  1  0  0  0
 11 12  2  0  0  0
 12 13  1  0  0  0
 12 14  1  0  0  0
 14 15  1  0  0  0
 15 16  1  0  0  0
 16 17  1  0  0  0
 17 18  1  0  0  0
 18 19  1  0  0  0
 19 20  1  0  0  0
  7  2  1  0  0  0
 18  9  1  0  0  0
 20  4  1  0  0  0
 15 10  2  0  0  0
  1 21  1  0  0  0
  8 22  1  0  0  0
 17 23  1  0  0  0
M  END
> <minimizedAffinity>
-4.56054

> <CNNscore>
0.5396814346

> <CNNaffinity>
4.5878653526

> <CNN_VS>
2.4759857655

> <CNNaffinity_variance>
0.0661312640

$$$$
[H]Oc1c([H])c2c(c([H])c1O[H])[C@]1([H])c3c(sc(Cl)c3[H])C([H])([H])N([H])[C@@]1([H])C([H])([H])C2([H])[H]


 23 26  0  0  0  0  0  0  0  0999 V2000
   30.5961  -23.5757   38.1993 O   0  0  0  0  0  0  0  0  0  0  0  0
   31.3654  -22.5904   37.6093 C   0  0  0  0  0  0  0  0  0  0  0  0
   30.9701  -22.1174   36.3693 C   0  0  0  0  0  0  0  0  0  0  0  0
   31.7163  -21.1499   35.7775 C   0  0  0  0  0  0  0  0  0  0  0  0
   32.8635  -20.6434   36.4119 C   0  0  0  0  0  0  0  0  0  0  0  0
   33.2412  -21.1170   37.6336 C   0  0  0  0  0  0  0  0  0  0  0  0
   32.4803  -22.1152   38.2557 C   0  0  0  0  0  0  0  0  0  0  0  0
   32.8166  -22.6339   39.4948 O   0  0  0  0  0  0  0  0  0  0  0  0
   33.5369  -19.6039   35.6079 C   0  0  0  0  0  0  0  0  0  0  0  0
   34.8409  -19.1251   36.1213 C   0  0  0  0  0  0  0  0  0  0  0  0
   35.8747  -19.9110   36.5487 C   0  0  0  0  0  0  0  0  0  0  0  0
   36.9955  -19.2772   36.9796 C   0  0  0  0  0  0  0  0  0  0  0  0
   38.4803  -20.0005   37.5859 Cl  0  0  0  0  0  0  0  0  0  0  0  0
   36.6162  -17.6278   36.7923 S   0  0  0  0  0  0  0  0  0  0  0  0
   35.0457  -17.7786   36.1715 C   0  0  0  0  0  0  0  0  0  0  0  0
   34.0449  -16.7606   35.7238 C   0  0  0  0  0  0  0  0  0  0  0  0
   33.1776  -17.4024   34.7414 N   0  0  0  0  0  0  0  0  0  0  0  0
   32.5480  -18.5193   35.4032 C   0  0  0  0  0  0  0  0  0  0  0  0
   31.3530  -19.0318   34.6197 C   0  0  0  0  0  0  0  0  0  0  0  0
   31.3735  -20.5442   34.4558 C   0  0  0  0  0  0  0  0  0  0  0  0
   29.7703  -23.9476   37.7521 H   0  0  0  0  0  0  0  0  0  0  0  0
   33.6069  -22.3457   40.0297 H   0  0  0  0  0  0  0  0  0  0  0  0
   32.5164  -16.6919   34.3886 H   0  0  0  0  0  0  0  0  0  0  0  0
  1  2  1  0  0  0
  2  3  2  0  0  0
  3  4  1  0  0  0
  4  5  2  0  0  0
  5  6  1  0  0  0
  6  7  2  0  0  0
  7  8  1  0  0  0
  5  9  1  0  0  0
  9 10  1  0  0  0
 10 11  1  0  0  0
 11 12  2  0  0  0
 12 13  1  0  0  0
 12 14  1  0  0  0
 14 15  1  0  0  0
 15 16  1  0  0  0
 16 17  1  0  0  0
 17 18  1  0  0  0
 18 19  1  0  0  0
 19 20  1  0  0  0
  7  2  1  0  0  0
 18  9  1  0  0  0
 20  4  1  0  0  0
 15 10  2  0  0  0
  1 21  1  0  0  0
  8 22  1  0  0  0
 17 23  1  0  0  0
M  END
> <minimizedAffinity>
-5.16581

> <CNNscore>
0.5070379972

> <CNNaffinity>
4.3004860878

> <CNN_VS>
2.1805098057

> <CNNaffinity_variance>
0.4259728789

$$$$
[H]Oc1c([H])c2c(c([H])c1O[H])[C@]1([H])c3c(sc(Cl)c3[H])C([H])([H])N([H])[C@@]1([H])C([H])([H])C2([H])[H]


 23 26  0  0  0  0  0  0  0  0999 V2000
   35.4773  -12.9096   36.0122 O   0  0  0  0  0  0  0  0  0  0  0  0
   35.2653  -14.2753   35.9905 C   0  0  0  0  0  0  0  0  0  0  0  0
   36.3739  -15.1002   35.9002 C   0  0  0  0  0  0  0  0  0  0  0  0
   36.1809  -16.4439   35.8775 C   0  0  0  0  0  0  0  0  0  0  0  0
   34.8840  -16.9812   35.9434 C   0  0  0  0  0  0  0  0  0  0  0  0
   33.8007  -16.1577   36.0333 C   0  0  0  0  0  0  0  0  0  0  0  0
   33.9854  -14.7693   36.0578 C   0  0  0  0  0  0  0  0  0  0  0  0
   32.9230  -13.8858   36.1472 O   0  0  0  0  0  0  0  0  0  0  0  0
   34.8850  -18.4572   35.9017 C   0  0  0  0  0  0  0  0  0  0  0  0
   33.5581  -19.1078   35.8057 C   0  0  0  0  0  0  0  0  0  0  0  0
   32.5572  -18.7694   34.9380 C   0  0  0  0  0  0  0  0  0  0  0  0
   31.4114  -19.4950   35.0031 C   0  0  0  0  0  0  0  0  0  0  0  0
   29.9564  -19.3063   34.0321 Cl  0  0  0  0  0  0  0  0  0  0  0  0
   31.7235  -20.6203   36.2423 S   0  0  0  0  0  0  0  0  0  0  0  0
   33.2995  -20.1462   36.6498 C   0  0  0  0  0  0  0  0  0  0  0  0
   34.2773  -20.6780   37.6496 C   0  0  0  0  0  0  0  0  0  0  0  0
   35.6158  -20.3509   37.1691 N   0  0  0  0  0  0  0  0  0  0  0  0
   35.6844  -18.9136   37.0631 C   0  0  0  0  0  0  0  0  0  0  0  0
   37.1183  -18.4299   36.9433 C   0  0  0  0  0  0  0  0  0  0  0  0
   37.2997  -17.4314   35.8099 C   0  0  0  0  0  0  0  0  0  0  0  0
   36.4049  -12.5125   35.9645 H   0  0  0  0  0  0  0  0  0  0  0  0
   31.9660  -14.1600   36.2000 H   0  0  0  0  0  0  0  0  0  0  0  0
   36.2986  -20.7599   37.8271 H   0  0  0  0  0  0  0  0  0  0  0  0
  1  2  1  0  0  0
  2  3  2  0  0  0
  3  4  1  0  0  0
  4  5  2  0  0  0
  5  6  1  0  0  0
  6  7  2  0  0  0
  7  8  1  0  0  0
  5  9  1  0  0  0
  9 10  1  0  0  0
 10 11  1  0  0  0
 11 12  2  0  0  0
 12 13  1  0  0  0
 12 14  1  0  0  0
 14 15  1  0  0  0
 15 16  1  0  0  0
 16 17  1  0  0  0
 17 18  1  0  0  0
 18 19  1  0  0  0
 19 20  1  0  0  0
  7  2  1  0  0  0
 18  9  1  0  0  0
 20  4  1  0  0  0
 15 10  2  0  0  0
  1 21  1  0  0  0
  8 22  1  0  0  0
 17 23  1  0  0  0
M  END
> <minimizedAffinity>
-6.89282

> <CNNscore>
0.4460217655

> <CNNaffinity>
4.8911442757

> <CNN_VS>
2.1815567017

> <CNNaffinity_variance>
0.3033305109

$$$$
[H]Oc1c([H])c2c(c([H])c1O[H])[C@]1([H])c3c(sc(Cl)c3[H])C([H])([H])N([H])[C@@]1([H])C([H])([H])C2([H])[H]


 23 26  0  0  0  0  0  0  0  0999 V2000
   34.8363  -20.8497   41.0233 O   0  0  0  0  0  0  0  0  0  0  0  0
   35.6062  -20.7299   39.8815 C   0  0  0  0  0  0  0  0  0  0  0  0
   35.2974  -19.7093   38.9979 C   0  0  0  0  0  0  0  0  0  0  0  0
   36.0448  -19.5797   37.8719 C   0  0  0  0  0  0  0  0  0  0  0  0
   37.1059  -20.4637   37.6124 C   0  0  0  0  0  0  0  0  0  0  0  0
   37.4003  -21.4639   38.4914 C   0  0  0  0  0  0  0  0  0  0  0  0
   36.6374  -21.6090   39.6573 C   0  0  0  0  0  0  0  0  0  0  0  0
   36.8901  -22.6061   40.5842 O   0  0  0  0  0  0  0  0  0  0  0  0
   37.7914  -20.1599   36.3403 C   0  0  0  0  0  0  0  0  0  0  0  0
   38.8194  -21.1329   35.9048 C   0  0  0  0  0  0  0  0  0  0  0  0
   38.6761  -22.4920   35.8680 C   0  0  0  0  0  0  0  0  0  0  0  0
   39.7394  -23.2138   35.4297 C   0  0  0  0  0  0  0  0  0  0  0  0
   39.8667  -24.9613   35.2692 Cl  0  0  0  0  0  0  0  0  0  0  0  0
   40.9078  -22.0264   35.0775 S   0  0  0  0  0  0  0  0  0  0  0  0
   40.0222  -20.6416   35.4933 C   0  0  0  0  0  0  0  0  0  0  0  0
   40.3585  -19.1848   35.4374 C   0  0  0  0  0  0  0  0  0  0  0  0
   39.1045  -18.4514   35.2995 N   0  0  0  0  0  0  0  0  0  0  0  0
   38.3009  -18.7729   36.4539 C   0  0  0  0  0  0  0  0  0  0  0  0
   37.1504  -17.7973   36.6231 C   0  0  0  0  0  0  0  0  0  0  0  0
   35.8234  -18.5024   36.8611 C   0  0  0  0  0  0  0  0  0  0  0  0
   34.0708  -20.2206   41.2195 H   0  0  0  0  0  0  0  0  0  0  0  0
   37.6168  -23.2831   40.4984 H   0  0  0  0  0  0  0  0  0  0  0  0
   39.3314  -17.4481   35.2079 H   0  0  0  0  0  0  0  0  0  0  0  0
  1  2  1  0  0  0
  2  3  2  0  0  0
  3  4  1  0  0  0
  4  5  2  0  0  0
  5  6  1  0  0  0
  6  7  2  0  0  0
  7  8  1  0  0  0
  5  9  1  0  0  0
  9 10  1  0  0  0
 10 11  1  0  0  0
 11 12  2  0  0  0
 12 13  1  0  0  0
 12 14  1  0  0  0
 14 15  1  0  0  0
 15 16  1  0  0  0
 16 17  1  0  0  0
 17 18  1  0  0  0
 18 19  1  0  0  0
 19 20  1  0  0  0
  7  2  1  0  0  0
 18  9  1  0  0  0
 20  4  1  0  0  0
 15 10  2  0  0  0
  1 21  1  0  0  0
  8 22  1  0  0  0
 17 23  1  0  0  0
M  END
> <minimizedAffinity>
-4.34817

> <CNNscore>
0.4442498088

> <CNNaffinity>
4.3602027893

> <CNN_VS>
1.9370192289

> <CNNaffinity_variance>
0.0245705750

$$$$
[H]Oc1c([H])c2c(c([H])c1O[H])[C@]1([H])c3c(sc(Cl)c3[H])C([H])([H])N([H])[C@@]1([H])C([H])([H])C2([H])[H]


 23 26  0  0  0  0  0  0  0  0999 V2000
   32.9858  -16.8235   34.3946 O   0  0  0  0  0  0  0  0  0  0  0  0
   33.0203  -18.0243   35.0783 C   0  0  0  0  0  0  0  0  0  0  0  0
   31.9518  -18.8905   34.9178 C   0  0  0  0  0  0  0  0  0  0  0  0
   31.9718  -20.0735   35.5836 C   0  0  0  0  0  0  0  0  0  0  0  0
   33.0536  -20.4072   36.4162 C   0  0  0  0  0  0  0  0  0  0  0  0
   34.1003  -19.5457   36.5647 C   0  0  0  0  0  0  0  0  0  0  0  0
   34.0927  -18.3216   35.8835 C   0  0  0  0  0  0  0  0  0  0  0  0
   35.1272  -17.4084   35.9971 O   0  0  0  0  0  0  0  0  0  0  0  0
   32.8862  -21.7297   37.0514 C   0  0  0  0  0  0  0  0  0  0  0  0
   33.8981  -22.0976   38.0682 C   0  0  0  0  0  0  0  0  0  0  0  0
   34.3291  -21.3071   39.0969 C   0  0  0  0  0  0  0  0  0  0  0  0
   35.2638  -21.8322   39.9301 C   0  0  0  0  0  0  0  0  0  0  0  0
   36.0116  -21.0733   41.3302 Cl  0  0  0  0  0  0  0  0  0  0  0  0
   35.5332  -23.3887   39.2945 S   0  0  0  0  0  0  0  0  0  0  0  0
   34.4546  -23.3391   37.9872 C   0  0  0  0  0  0  0  0  0  0  0  0
   34.0929  -24.3545   36.9495 C   0  0  0  0  0  0  0  0  0  0  0  0
   32.7396  -24.0525   36.4951 N   0  0  0  0  0  0  0  0  0  0  0  0
   32.7674  -22.7161   35.9518 C   0  0  0  0  0  0  0  0  0  0  0  0
   31.5360  -22.4286   35.1119 C   0  0  0  0  0  0  0  0  0  0  0  0
   30.8905  -21.0976   35.4673 C   0  0  0  0  0  0  0  0  0  0  0  0
   32.2130  -16.5730   33.7943 H   0  0  0  0  0  0  0  0  0  0  0  0
   35.9397  -17.5454   36.5583 H   0  0  0  0  0  0  0  0  0  0  0  0
   32.4625  -24.7797   35.8162 H   0  0  0  0  0  0  0  0  0  0  0  0
  1  2  1  0  0  0
  2  3  2  0  0  0
  3  4  1  0  0  0
  4  5  2  0  0  0
  5  6  1  0  0  0
  6  7  2  0  0  0
  7  8  1  0  0  0
  5  9  1  0  0  0
  9 10  1  0  0  0
 10 11  1  0  0  0
 11 12  2  0  0  0
 12 13  1  0  0  0
 12 14  1  0  0  0
 14 15  1  0  0  0
 15 16  1  0  0  0
 16 17  1  0  0  0
 17 18  1  0  0  0
 18 19  1  0  0  0
 19 20  1  0  0  0
  7  2  1  0  0  0
 18  9  1  0  0  0
 20  4  1  0  0  0
 15 10  2  0  0  0
  1 21  1  0  0  0
  8 22  1  0  0  0
 17 23  1  0  0  0
M  END
> <minimizedAffinity>
-4.57553

> <CNNscore>
0.4379491806

> <CNNaffinity>
4.2019972801

> <CNN_VS>
1.8402612209

> <CNNaffinity_variance>
0.2265510559

$$$$
[H]Oc1c([H])c2c(c([H])c1O[H])[C@]1([H])c3c(sc(Cl)c3[H])C([H])([H])N([H])[C@@]1([H])C([H])([H])C2([H])[H]


 23 26  0  0  0  0  0  0  0  0999 V2000
   29.1198  -20.7411   35.4373 O   0  0  0  0  0  0  0  0  0  0  0  0
   30.4630  -20.4490   35.5826 C   0  0  0  0  0  0  0  0  0  0  0  0
   31.0179  -19.5147   34.7242 C   0  0  0  0  0  0  0  0  0  0  0  0
   32.3363  -19.2181   34.8548 C   0  0  0  0  0  0  0  0  0  0  0  0
   33.1167  -19.8478   35.8394 C   0  0  0  0  0  0  0  0  0  0  0  0
   32.5577  -20.7653   36.6792 C   0  0  0  0  0  0  0  0  0  0  0  0
   31.1984  -21.0807   36.5556 C   0  0  0  0  0  0  0  0  0  0  0  0
   30.5781  -22.0046   37.3797 O   0  0  0  0  0  0  0  0  0  0  0  0
   34.5216  -19.3938   35.8176 C   0  0  0  0  0  0  0  0  0  0  0  0
   35.4545  -20.1165   36.7124 C   0  0  0  0  0  0  0  0  0  0  0  0
   35.5646  -21.4738   36.8326 C   0  0  0  0  0  0  0  0  0  0  0  0
   36.4895  -21.9436   37.7086 C   0  0  0  0  0  0  0  0  0  0  0  0
   36.8667  -23.6202   38.0858 Cl  0  0  0  0  0  0  0  0  0  0  0  0
   37.1876  -20.5277   38.3468 S   0  0  0  0  0  0  0  0  0  0  0  0
   36.2917  -19.3720   37.4886 C   0  0  0  0  0  0  0  0  0  0  0  0
   36.3380  -17.8767   37.4775 C   0  0  0  0  0  0  0  0  0  0  0  0
   35.8462  -17.4335   36.1771 N   0  0  0  0  0  0  0  0  0  0  0  0
   34.4976  -17.9298   36.0467 C   0  0  0  0  0  0  0  0  0  0  0  0
   33.7504  -17.2296   34.9262 C   0  0  0  0  0  0  0  0  0  0  0  0
   33.0371  -18.2086   34.0056 C   0  0  0  0  0  0  0  0  0  0  0  0
   28.5497  -20.2953   34.7327 H   0  0  0  0  0  0  0  0  0  0  0  0
   31.0374  -22.5063   38.1085 H   0  0  0  0  0  0  0  0  0  0  0  0
   35.9237  -16.4043   36.1418 H   0  0  0  0  0  0  0  0  0  0  0  0
  1  2  1  0  0  0
  2  3  2  0  0  0
  3  4  1  0  0  0
  4  5  2  0  0  0
  5  6  1  0  0  0
  6  7  2  0  0  0
  7  8  1  0  0  0
  5  9  1  0  0  0
  9 10  1  0  0  0
 10 11  1  0  0  0
 11 12  2  0  0  0
 12 13  1  0  0  0
 12 14  1  0  0  0
 14 15  1  0  0  0
 15 16  1  0  0  0
 16 17  1  0  0  0
 17 18  1  0  0  0
 18 19  1  0  0  0
 19 20  1  0  0  0
  7  2  1  0  0  0
 18  9  1  0  0  0
 20  4  1  0  0  0
 15 10  2  0  0  0
  1 21  1  0  0  0
  8 22  1  0  0  0
 17 23  1  0  0  0
M  END
> <minimizedAffinity>
-4.99988

> <CNNscore>
0.4335360229

> <CNNaffinity>
4.4822793007

> <CNN_VS>
1.9432295561

> <CNNaffinity_variance>
0.1368049085

$$$$
[H]Oc1c([H])c2c(c([H])c1O[H])[C@]1([H])c3c(sc(Cl)c3[H])C([H])([H])N([H])[C@@]1([H])C([H])([H])C2([H])[H]


 23 26  0  0  0  0  0  0  0  0999 V2000
   32.4374  -23.3350   39.5193 O   0  0  0  0  0  0  0  0  0  0  0  0
   33.4024  -22.4398   39.0973 C   0  0  0  0  0  0  0  0  0  0  0  0
   34.6243  -22.4519   39.7488 C   0  0  0  0  0  0  0  0  0  0  0  0
   35.5817  -21.5779   39.3453 C   0  0  0  0  0  0  0  0  0  0  0  0
   35.3339  -20.6825   38.2909 C   0  0  0  0  0  0  0  0  0  0  0  0
   34.1265  -20.6817   37.6569 C   0  0  0  0  0  0  0  0  0  0  0  0
   33.1297  -21.5783   38.0629 C   0  0  0  0  0  0  0  0  0  0  0  0
   31.8856  -21.6216   37.4564 O   0  0  0  0  0  0  0  0  0  0  0  0
   36.4947  -19.8153   38.0061 C   0  0  0  0  0  0  0  0  0  0  0  0
   36.2741  -18.7337   37.0189 C   0  0  0  0  0  0  0  0  0  0  0  0
   35.2197  -17.8636   37.0012 C   0  0  0  0  0  0  0  0  0  0  0  0
   35.2020  -16.9343   36.0114 C   0  0  0  0  0  0  0  0  0  0  0  0
   33.9939  -15.6889   35.7202 Cl  0  0  0  0  0  0  0  0  0  0  0  0
   36.6202  -17.2661   35.1294 S   0  0  0  0  0  0  0  0  0  0  0  0
   37.2041  -18.5750   36.0353 C   0  0  0  0  0  0  0  0  0  0  0  0
   38.4378  -19.4112   35.9045 C   0  0  0  0  0  0  0  0  0  0  0  0
   38.7552  -19.9329   37.2297 N   0  0  0  0  0  0  0  0  0  0  0  0
   37.6197  -20.7143   37.6564 C   0  0  0  0  0  0  0  0  0  0  0  0
   37.9678  -21.6103   38.8313 C   0  0  0  0  0  0  0  0  0  0  0  0
   36.9448  -21.5174   39.9535 C   0  0  0  0  0  0  0  0  0  0  0  0
   32.6043  -23.9822   40.2766 H   0  0  0  0  0  0  0  0  0  0  0  0
   31.6069  -21.0332   36.7015 H   0  0  0  0  0  0  0  0  0  0  0  0
   39.6350  -20.4688   37.1581 H   0  0  0  0  0  0  0  0  0  0  0  0
  1  2  1  0  0  0
  2  3  2  0  0  0
  3  4  1  0  0  0
  4  5  2  0  0  0
  5  6  1  0  0  0
  6  7  2  0  0  0
  7  8  1  0  0  0
  5  9  1  0  0  0
  9 10  1  0  0  0
 10 11  1  0  0  0
 11 12  2  0  0  0
 12 13  1  0  0  0
 12 14  1  0  0  0
 14 15  1  0  0  0
 15 16  1  0  0  0
 16 17  1  0  0  0
 17 18  1  0  0  0
 18 19  1  0  0  0
 19 20  1  0  0  0
  7  2  1  0  0  0
 18  9  1  0  0  0
 20  4  1  0  0  0
 15 10  2  0  0  0
  1 21  1  0  0  0
  8 22  1  0  0  0
 17 23  1  0  0  0
M  END
> <minimizedAffinity>
-4.44729

> <CNNscore>
0.4150366187

> <CNNaffinity>
4.2273435593

> <CNN_VS>
1.7545024157

> <CNNaffinity_variance>
0.0492731929

$$$$
[H]Oc1c([H])c2c(c([H])c1O[H])[C@]1([H])c3c(sc(Cl)c3[H])C([H])([H])N([H])[C@@]1([H])C([H])([H])C2([H])[H]


 23 26  0  0  0  0  0  0  0  0999 V2000
   36.2976  -15.1673   35.5073 O   0  0  0  0  0  0  0  0  0  0  0  0
   35.7974  -16.3869   35.9234 C   0  0  0  0  0  0  0  0  0  0  0  0
   34.5122  -16.7251   35.5343 C   0  0  0  0  0  0  0  0  0  0  0  0
   34.0075  -17.9198   35.9360 C   0  0  0  0  0  0  0  0  0  0  0  0
   34.7748  -18.7899   36.7292 C   0  0  0  0  0  0  0  0  0  0  0  0
   36.0397  -18.4451   37.1045 C   0  0  0  0  0  0  0  0  0  0  0  0
   36.5730  -17.2155   36.6970 C   0  0  0  0  0  0  0  0  0  0  0  0
   37.8504  -16.8132   37.0487 O   0  0  0  0  0  0  0  0  0  0  0  0
   34.0497  -20.0321   37.0629 C   0  0  0  0  0  0  0  0  0  0  0  0
   34.7170  -20.9384   38.0253 C   0  0  0  0  0  0  0  0  0  0  0  0
   35.2799  -20.5733   39.2165 C   0  0  0  0  0  0  0  0  0  0  0  0
   35.8406  -21.5591   39.9630 C   0  0  0  0  0  0  0  0  0  0  0  0
   36.6368  -21.4116   41.5250 Cl  0  0  0  0  0  0  0  0  0  0  0  0
   35.5880  -22.9589   39.0269 S   0  0  0  0  0  0  0  0  0  0  0  0
   34.7769  -22.2632   37.7106 C   0  0  0  0  0  0  0  0  0  0  0  0
   34.1953  -22.8569   36.4665 C   0  0  0  0  0  0  0  0  0  0  0  0
   33.1193  -21.9764   36.0233 N   0  0  0  0  0  0  0  0  0  0  0  0
   33.7099  -20.6834   35.7758 C   0  0  0  0  0  0  0  0  0  0  0  0
   32.7887  -19.7955   34.9588 C   0  0  0  0  0  0  0  0  0  0  0  0
   32.6462  -18.4036   35.5561 C   0  0  0  0  0  0  0  0  0  0  0  0
   35.7547  -14.5339   34.9378 H   0  0  0  0  0  0  0  0  0  0  0  0
   38.4769  -17.3526   37.6057 H   0  0  0  0  0  0  0  0  0  0  0  0
   32.6782  -22.4060   35.1942 H   0  0  0  0  0  0  0  0  0  0  0  0
  1  2  1  0  0  0
  2  3  2  0  0  0
  3  4  1  0  0  0
  4  5  2  0  0  0
  5  6  1  0  0  0
  6  7  2  0  0  0
  7  8  1  0  0  0
  5  9  1  0  0  0
  9 10  1  0  0  0
 10 11  1  0  0  0
 11 12  2  0  0  0
 12 13  1  0  0  0
 12 14  1  0  0  0
 14 15  1  0  0  0
 15 16  1  0  0  0
 16 17  1  0  0  0
 17 18  1  0  0  0
 18 19  1  0  0  0
 19 20  1  0  0  0
  7  2  1  0  0  0
 18  9  1  0  0  0
 20  4  1  0  0  0
 15 10  2  0  0  0
  1 21  1  0  0  0
  8 22  1  0  0  0
 17 23  1  0  0  0
M  END
> <minimizedAffinity>
-4.85113

> <CNNscore>
0.4027099609

> <CNNaffinity>
4.4110693932

> <CNN_VS>
1.7763816118

> <CNNaffinity_variance>
0.0475856736

$$$$
[H]c1c(-c2c([H])c([H])c([H])c(C([H])([H])n3nc(-c4c([H])c(F)c([H])c(F)c4[H])c([H])c([H])c3=O)c2[H])nnc(C([H])([H])[H])c1[H]


 29 32  0  0  0  0  0  0  0  0999 V2000
   35.5124  -17.8274   35.9799 N   0  0  0  0  0  0  0  0  0  0  0  0
   34.2948  -18.3391   35.8235 N   0  0  0  0  0  0  0  0  0  0  0  0
   33.8708  -19.4809   36.3999 C   0  0  0  0  0  0  0  0  0  0  0  0
   34.7540  -20.1696   37.2068 C   0  0  0  0  0  0  0  0  0  0  0  0
   36.0300  -19.6703   37.3946 C   0  0  0  0  0  0  0  0  0  0  0  0
   36.3858  -18.4823   36.7605 C   0  0  0  0  0  0  0  0  0  0  0  0
   37.5168  -17.9822   36.8884 O   0  0  0  0  0  0  0  0  0  0  0  0
   32.5017  -19.9553   36.1582 C   0  0  0  0  0  0  0  0  0  0  0  0
   31.9692  -21.0911   36.6991 C   0  0  0  0  0  0  0  0  0  0  0  0
   30.6597  -21.4866   36.4290 C   0  0  0  0  0  0  0  0  0  0  0  0
   30.1563  -22.6096   36.9734 F   0  0  0  0  0  0  0  0  0  0  0  0
   29.8522  -20.7414   35.6022 C   0  0  0  0  0  0  0  0  0  0  0  0
   30.3804  -19.5944   35.0520 C   0  0  0  0  0  0  0  0  0  0  0  0
   29.5889  -18.8589   34.2381 F   0  0  0  0  0  0  0  0  0  0  0  0
   31.6772  -19.2157   35.3281 C   0  0  0  0  0  0  0  0  0  0  0  0
   35.8018  -16.6021   35.3028 C   0  0  0  0  0  0  0  0  0  0  0  0
   34.2697  -13.7078   37.1329 C   0  0  0  0  0  0  0  0  0  0  0  0
   35.4388  -13.0714   37.5160 C   0  0  0  0  0  0  0  0  0  0  0  0
   36.6866  -13.5432   37.2027 C   0  0  0  0  0  0  0  0  0  0  0  0
   36.8064  -14.7002   36.4754 C   0  0  0  0  0  0  0  0  0  0  0  0
   35.6866  -15.3709   36.0704 C   0  0  0  0  0  0  0  0  0  0  0  0
   34.4523  -14.8664   36.4038 C   0  0  0  0  0  0  0  0  0  0  0  0
   29.1469  -11.4392   38.1783 C   0  0  0  0  0  0  0  0  0  0  0  0
   30.5056  -12.0515   37.9584 C   0  0  0  0  0  0  0  0  0  0  0  0
   31.2210  -12.5890   39.0048 C   0  0  0  0  0  0  0  0  0  0  0  0
   32.4796  -13.1518   38.7777 C   0  0  0  0  0  0  0  0  0  0  0  0
   32.9781  -13.1545   37.4979 C   0  0  0  0  0  0  0  0  0  0  0  0
   32.2263  -12.6143   36.5312 N   0  0  0  0  0  0  0  0  0  0  0  0
   31.0391  -12.0823   36.7396 N   0  0  0  0  0  0  0  0  0  0  0  0
 23 24  1  0  0  0
 24 25  2  0  0  0
 25 26  1  0  0  0
 26 27  2  0  0  0
 27 17  1  0  0  0
 17 18  2  0  0  0
 18 19  1  0  0  0
 19 20  2  0  0  0
 20 21  1  0  0  0
 21 16  1  0  0  0
 16  1  1  0  0  0
  1  2  1  0  0  0
  2  3  2  0  0  0
  3  8  1  0  0  0
  8  9  2  0  0  0
  9 10  1  0  0  0
 10 11  1  0  0  0
 10 12  2  0  0  0
 12 13  1  0  0  0
 13 14  1  0  0  0
 13 15  2  0  0  0
  3  4  1  0  0  0
  4  5  2  0  0  0
  5  6  1  0  0  0
  6  7  2  0  0  0
 21 22  2  0  0  0
 27 28  1  0  0  0
 28 29  2  0  0  0
 29 24  1  0  0  0
 22 17  1  0  0  0
  6  1  1  0  0  0
 15  8  1  0  0  0
M  END
> <minimizedAffinity>
-8.97631

> <CNNscore>
0.4372346997

> <CNNaffinity>
5.8002233505

> <CNN_VS>
2.5360589027

> <CNNaffinity_variance>
0.2630242705

$$$$
[H]c1c(-c2c([H])c([H])c([H])c(C([H])([H])n3nc(-c4c([H])c(F)c([H])c(F)c4[H])c([H])c([H])c3=O)c2[H])nnc(C([H])([H])[H])c1[H]


 29 32  0  0  0  0  0  0  0  0999 V2000
   35.2177  -18.1141   36.0626 N   0  0  0  0  0  0  0  0  0  0  0  0
   36.0870  -18.7527   36.8405 N   0  0  0  0  0  0  0  0  0  0  0  0
   35.8080  -19.8783   37.5268 C   0  0  0  0  0  0  0  0  0  0  0  0
   34.5379  -20.4081   37.4196 C   0  0  0  0  0  0  0  0  0  0  0  0
   33.6047  -19.7732   36.6204 C   0  0  0  0  0  0  0  0  0  0  0  0
   33.9774  -18.6133   35.9454 C   0  0  0  0  0  0  0  0  0  0  0  0
   33.1853  -17.9959   35.2126 O   0  0  0  0  0  0  0  0  0  0  0  0
   36.8463  -20.5020   38.3580 C   0  0  0  0  0  0  0  0  0  0  0  0
   38.1803  -20.4973   38.0634 C   0  0  0  0  0  0  0  0  0  0  0  0
   39.1164  -21.1090   38.8962 C   0  0  0  0  0  0  0  0  0  0  0  0
   40.4256  -21.0916   38.5855 F   0  0  0  0  0  0  0  0  0  0  0  0
   38.7266  -21.7434   40.0523 C   0  0  0  0  0  0  0  0  0  0  0  0
   37.3835  -21.7535   40.3578 C   0  0  0  0  0  0  0  0  0  0  0  0
   36.9964  -22.3767   41.4944 F   0  0  0  0  0  0  0  0  0  0  0  0
   36.4691  -21.1443   39.5247 C   0  0  0  0  0  0  0  0  0  0  0  0
   35.6750  -16.9343   35.3972 C   0  0  0  0  0  0  0  0  0  0  0  0
   34.7959  -13.6828   37.0489 C   0  0  0  0  0  0  0  0  0  0  0  0
   36.0021  -13.4507   37.6891 C   0  0  0  0  0  0  0  0  0  0  0  0
   37.0732  -14.3009   37.6015 C   0  0  0  0  0  0  0  0  0  0  0  0
   36.9673  -15.4426   36.8485 C   0  0  0  0  0  0  0  0  0  0  0  0
   35.8004  -15.7232   36.1945 C   0  0  0  0  0  0  0  0  0  0  0  0
   34.7480  -14.8463   36.3064 C   0  0  0  0  0  0  0  0  0  0  0  0
   30.2496  -10.2654   37.4169 C   0  0  0  0  0  0  0  0  0  0  0  0
   31.4836  -11.1263   37.3428 C   0  0  0  0  0  0  0  0  0  0  0  0
   32.7033  -10.6598   37.7791 C   0  0  0  0  0  0  0  0  0  0  0  0
   33.8348  -11.4759   37.7008 C   0  0  0  0  0  0  0  0  0  0  0  0
   33.6994  -12.7409   37.1831 C   0  0  0  0  0  0  0  0  0  0  0  0
   32.4828  -13.1259   36.7790 N   0  0  0  0  0  0  0  0  0  0  0  0
   31.4126  -12.3607   36.8504 N   0  0  0  0  0  0  0  0  0  0  0  0
 23 24  1  0  0  0
 24 25  2  0  0  0
 25 26  1  0  0  0
 26 27  2  0  0  0
 27 17  1  0  0  0
 17 18  2  0  0  0
 18 19  1  0  0  0
 19 20  2  0  0  0
 20 21  1  0  0  0
 21 16  1  0  0  0
 16  1  1  0  0  0
  1  2  1  0  0  0
  2  3  2  0  0  0
  3  8  1  0  0  0
  8  9  2  0  0  0
  9 10  1  0  0  0
 10 11  1  0  0  0
 10 12  2  0  0  0
 12 13  1  0  0  0
 13 14  1  0  0  0
 13 15  2  0  0  0
  3  4  1  0  0  0
  4  5  2  0  0  0
  5  6  1  0  0  0
  6  7  2  0  0  0
 21 22  2  0  0  0
 27 28  1  0  0  0
 28 29  2  0  0  0
 29 24  1  0  0  0
 22 17  1  0  0  0
  6  1  1  0  0  0
 15  8  1  0  0  0
M  END
> <minimizedAffinity>
-8.09380

> <CNNscore>
0.4241638184

> <CNNaffinity>
5.5049462318

> <CNN_VS>
2.3349990845

> <CNNaffinity_variance>
0.2149278671

$$$$
[H]c1c(-c2c([H])c([H])c([H])c(C([H])([H])n3nc(-c4c([H])c(F)c([H])c(F)c4[H])c([H])c([H])c3=O)c2[H])nnc(C([H])([H])[H])c1[H]


 29 32  0  0  0  0  0  0  0  0999 V2000
   33.2915  -18.4623   34.3309 N   0  0  0  0  0  0  0  0  0  0  0  0
   33.5284  -17.3457   35.0133 N   0  0  0  0  0  0  0  0  0  0  0  0
   34.7582  -16.8979   35.3340 C   0  0  0  0  0  0  0  0  0  0  0  0
   35.8479  -17.6430   34.9306 C   0  0  0  0  0  0  0  0  0  0  0  0
   35.6433  -18.8110   34.2188 C   0  0  0  0  0  0  0  0  0  0  0  0
   34.3378  -19.2009   33.9299 C   0  0  0  0  0  0  0  0  0  0  0  0
   34.0875  -20.2399   33.2947 O   0  0  0  0  0  0  0  0  0  0  0  0
   34.9046  -15.6484   36.0925 C   0  0  0  0  0  0  0  0  0  0  0  0
   36.0781  -15.2032   36.6319 C   0  0  0  0  0  0  0  0  0  0  0  0
   36.1497  -14.0056   37.3425 C   0  0  0  0  0  0  0  0  0  0  0  0
   37.3170  -13.5869   37.8649 F   0  0  0  0  0  0  0  0  0  0  0  0
   35.0329  -13.2247   37.5267 C   0  0  0  0  0  0  0  0  0  0  0  0
   33.8449  -13.6655   36.9865 C   0  0  0  0  0  0  0  0  0  0  0  0
   32.7441  -12.8998   37.1657 F   0  0  0  0  0  0  0  0  0  0  0  0
   33.7892  -14.8520   36.2861 C   0  0  0  0  0  0  0  0  0  0  0  0
   31.9261  -18.7936   34.0671 C   0  0  0  0  0  0  0  0  0  0  0  0
   31.4679  -21.4740   36.6515 C   0  0  0  0  0  0  0  0  0  0  0  0
   30.0839  -21.4646   36.7067 C   0  0  0  0  0  0  0  0  0  0  0  0
   29.3087  -20.6315   35.9434 C   0  0  0  0  0  0  0  0  0  0  0  0
   29.9121  -19.7565   35.0762 C   0  0  0  0  0  0  0  0  0  0  0  0
   31.2750  -19.7216   34.9799 C   0  0  0  0  0  0  0  0  0  0  0  0
   32.0188  -20.5728   35.7617 C   0  0  0  0  0  0  0  0  0  0  0  0
   34.3468  -24.8241   40.2531 C   0  0  0  0  0  0  0  0  0  0  0  0
   33.6042  -23.9719   39.2573 C   0  0  0  0  0  0  0  0  0  0  0  0
   33.6371  -24.2593   37.9112 C   0  0  0  0  0  0  0  0  0  0  0  0
   32.9407  -23.4550   37.0053 C   0  0  0  0  0  0  0  0  0  0  0  0
   32.2308  -22.3828   37.4880 C   0  0  0  0  0  0  0  0  0  0  0  0
   32.2447  -22.1650   38.8085 N   0  0  0  0  0  0  0  0  0  0  0  0
   32.8995  -22.9199   39.6671 N   0  0  0  0  0  0  0  0  0  0  0  0
 23 24  1  0  0  0
 24 25  2  0  0  0
 25 26  1  0  0  0
 26 27  2  0  0  0
 27 17  1  0  0  0
 17 18  2  0  0  0
 18 19  1  0  0  0
 19 20  2  0  0  0
 20 21  1  0  0  0
 21 16  1  0  0  0
 16  1  1  0  0  0
  1  2  1  0  0  0
  2  3  2  0  0  0
  3  8  1  0  0  0
  8  9  2  0  0  0
  9 10  1  0  0  0
 10 11  1  0  0  0
 10 12  2  0  0  0
 12 13  1  0  0  0
 13 14  1  0  0  0
 13 15  2  0  0  0
  3  4  1  0  0  0
  4  5  2  0  0  0
  5  6  1  0  0  0
  6  7  2  0  0  0
 21 22  2  0  0  0
 27 28  1  0  0  0
 28 29  2  0  0  0
 29 24  1  0  0  0
 22 17  1  0  0  0
  6  1  1  0  0  0
 15  8  1  0  0  0
M  END
> <minimizedAffinity>
-7.81003

> <CNNscore>
0.4210014343

> <CNNaffinity>
5.3379416466

> <CNN_VS>
2.2472810745

> <CNNaffinity_variance>
0.5462243557

$$$$
[H]c1c(-c2c([H])c([H])c([H])c(C([H])([H])n3nc(-c4c([H])c(F)c([H])c(F)c4[H])c([H])c([H])c3=O)c2[H])nnc(C([H])([H])[H])c1[H]


 29 32  0  0  0  0  0  0  0  0999 V2000
   34.8423  -18.0156   35.7321 N   0  0  0  0  0  0  0  0  0  0  0  0
   35.2626  -18.7587   36.7519 N   0  0  0  0  0  0  0  0  0  0  0  0
   34.5646  -19.7802   37.2859 C   0  0  0  0  0  0  0  0  0  0  0  0
   33.3313  -20.0798   36.7431 C   0  0  0  0  0  0  0  0  0  0  0  0
   32.8586  -19.3301   35.6815 C   0  0  0  0  0  0  0  0  0  0  0  0
   33.6456  -18.2910   35.1907 C   0  0  0  0  0  0  0  0  0  0  0  0
   33.2772  -17.5802   34.2395 O   0  0  0  0  0  0  0  0  0  0  0  0
   35.1256  -20.5360   38.4137 C   0  0  0  0  0  0  0  0  0  0  0  0
   36.4557  -20.5978   38.7191 C   0  0  0  0  0  0  0  0  0  0  0  0
   36.9241  -21.3350   39.8060 C   0  0  0  0  0  0  0  0  0  0  0  0
   38.2392  -21.3811   40.0878 F   0  0  0  0  0  0  0  0  0  0  0  0
   36.0568  -22.0312   40.6148 C   0  0  0  0  0  0  0  0  0  0  0  0
   34.7136  -21.9750   40.3147 C   0  0  0  0  0  0  0  0  0  0  0  0
   33.8575  -22.6587   41.1082 F   0  0  0  0  0  0  0  0  0  0  0  0
   34.2649  -21.2418   39.2366 C   0  0  0  0  0  0  0  0  0  0  0  0
   35.7077  -16.9716   35.2796 C   0  0  0  0  0  0  0  0  0  0  0  0
   34.8700  -13.7657   37.0387 C   0  0  0  0  0  0  0  0  0  0  0  0
   36.0609  -13.5970   37.7256 C   0  0  0  0  0  0  0  0  0  0  0  0
   37.1092  -14.4749   37.6358 C   0  0  0  0  0  0  0  0  0  0  0  0
   36.9948  -15.5809   36.8323 C   0  0  0  0  0  0  0  0  0  0  0  0
   35.8422  -15.7987   36.1309 C   0  0  0  0  0  0  0  0  0  0  0  0
   34.8126  -14.8957   36.2466 C   0  0  0  0  0  0  0  0  0  0  0  0
   30.4091  -10.2406   37.4344 C   0  0  0  0  0  0  0  0  0  0  0  0
   31.6218  -11.1305   37.3519 C   0  0  0  0  0  0  0  0  0  0  0  0
   32.8586  -10.6869   37.7634 C   0  0  0  0  0  0  0  0  0  0  0  0
   33.9699  -11.5297   37.6778 C   0  0  0  0  0  0  0  0  0  0  0  0
   33.7975  -12.7974   37.1781 C   0  0  0  0  0  0  0  0  0  0  0  0
   32.5662  -13.1592   36.7977 N   0  0  0  0  0  0  0  0  0  0  0  0
   31.5150  -12.3688   36.8762 N   0  0  0  0  0  0  0  0  0  0  0  0
 23 24  1  0  0  0
 24 25  2  0  0  0
 25 26  1  0  0  0
 26 27  2  0  0  0
 27 17  1  0  0  0
 17 18  2  0  0  0
 18 19  1  0  0  0
 19 20  2  0  0  0
 20 21  1  0  0  0
 21 16  1  0  0  0
 16  1  1  0  0  0
  1  2  1  0  0  0
  2  3  2  0  0  0
  3  8  1  0  0  0
  8  9  2  0  0  0
  9 10  1  0  0  0
 10 11  1  0  0  0
 10 12  2  0  0  0
 12 13  1  0  0  0
 13 14  1  0  0  0
 13 15  2  0  0  0
  3  4  1  0  0  0
  4  5  2  0  0  0
  5  6  1  0  0  0
  6  7  2  0  0  0
 21 22  2  0  0  0
 27 28  1  0  0  0
 28 29  2  0  0  0
 29 24  1  0  0  0
 22 17  1  0  0  0
  6  1  1  0  0  0
 15  8  1  0  0  0
M  END
> <minimizedAffinity>
-8.27254

> <CNNscore>
0.3978401721

> <CNNaffinity>
5.5532159805

> <CNN_VS>
2.2092924118

> <CNNaffinity_variance>
0.1786613613

$$$$
[H]c1c(-c2c([H])c([H])c([H])c(C([H])([H])n3nc(-c4c([H])c(F)c([H])c(F)c4[H])c([H])c([H])c3=O)c2[H])nnc(C([H])([H])[H])c1[H]


 29 32  0  0  0  0  0  0  0  0999 V2000
   34.3064  -21.3369   37.7018 N   0  0  0  0  0  0  0  0  0  0  0  0
   35.5974  -21.0399   37.5833 N   0  0  0  0  0  0  0  0  0  0  0  0
   36.4898  -21.1157   38.5901 C   0  0  0  0  0  0  0  0  0  0  0  0
   36.0405  -21.5279   39.8285 C   0  0  0  0  0  0  0  0  0  0  0  0
   34.7046  -21.8458   39.9926 C   0  0  0  0  0  0  0  0  0  0  0  0
   33.8500  -21.7395   38.8980 C   0  0  0  0  0  0  0  0  0  0  0  0
   32.6393  -22.0098   38.9805 O   0  0  0  0  0  0  0  0  0  0  0  0
   37.8950  -20.7631   38.3472 C   0  0  0  0  0  0  0  0  0  0  0  0
   38.9422  -21.1794   39.1194 C   0  0  0  0  0  0  0  0  0  0  0  0
   40.2556  -20.8082   38.8340 C   0  0  0  0  0  0  0  0  0  0  0  0
   41.2714  -21.2307   39.6090 F   0  0  0  0  0  0  0  0  0  0  0  0
   40.5450  -20.0038   37.7570 C   0  0  0  0  0  0  0  0  0  0  0  0
   39.4955  -19.5789   36.9725 C   0  0  0  0  0  0  0  0  0  0  0  0
   39.7765  -18.7874   35.9120 F   0  0  0  0  0  0  0  0  0  0  0  0
   38.2017  -19.9540   37.2668 C   0  0  0  0  0  0  0  0  0  0  0  0
   33.4933  -21.2098   36.5329 C   0  0  0  0  0  0  0  0  0  0  0  0
   34.3136  -17.6386   35.7283 C   0  0  0  0  0  0  0  0  0  0  0  0
   33.4921  -17.4884   34.6232 C   0  0  0  0  0  0  0  0  0  0  0  0
   32.6932  -18.4918   34.1409 C   0  0  0  0  0  0  0  0  0  0  0  0
   32.6917  -19.7120   34.7678 C   0  0  0  0  0  0  0  0  0  0  0  0
   33.4828  -19.9176   35.8631 C   0  0  0  0  0  0  0  0  0  0  0  0
   34.2705  -18.8870   36.3175 C   0  0  0  0  0  0  0  0  0  0  0  0
   37.8155  -13.5746   37.6527 C   0  0  0  0  0  0  0  0  0  0  0  0
   36.8526  -14.6075   37.1280 C   0  0  0  0  0  0  0  0  0  0  0  0
   35.6531  -14.2384   36.5616 C   0  0  0  0  0  0  0  0  0  0  0  0
   34.7750  -15.2135   36.0814 C   0  0  0  0  0  0  0  0  0  0  0  0
   35.1362  -16.5344   36.1883 C   0  0  0  0  0  0  0  0  0  0  0  0
   36.3174  -16.8177   36.7502 N   0  0  0  0  0  0  0  0  0  0  0  0
   37.1492  -15.9025   37.2047 N   0  0  0  0  0  0  0  0  0  0  0  0
 23 24  1  0  0  0
 24 25  2  0  0  0
 25 26  1  0  0  0
 26 27  2  0  0  0
 27 17  1  0  0  0
 17 18  2  0  0  0
 18 19  1  0  0  0
 19 20  2  0  0  0
 20 21  1  0  0  0
 21 16  1  0  0  0
 16  1  1  0  0  0
  1  2  1  0  0  0
  2  3  2  0  0  0
  3  8  1  0  0  0
  8  9  2  0  0  0
  9 10  1  0  0  0
 10 11  1  0  0  0
 10 12  2  0  0  0
 12 13  1  0  0  0
 13 14  1  0  0  0
 13 15  2  0  0  0
  3  4  1  0  0  0
  4  5  2  0  0  0
  5  6  1  0  0  0
  6  7  2  0  0  0
 21 22  2  0  0  0
 27 28  1  0  0  0
 28 29  2  0  0  0
 29 24  1  0  0  0
 22 17  1  0  0  0
  6  1  1  0  0  0
 15  8  1  0  0  0
M  END
> <minimizedAffinity>
-6.94310

> <CNNscore>
0.3843842447

> <CNNaffinity>
5.2307343483

> <CNN_VS>
2.0106117725

> <CNNaffinity_variance>
0.7568556070

$$$$
[H]c1c(-c2c([H])c([H])c([H])c(C([H])([H])n3nc(-c4c([H])c(F)c([H])c(F)c4[H])c([H])c([H])c3=O)c2[H])nnc(C([H])([H])[H])c1[H]


 29 32  0  0  0  0  0  0  0  0999 V2000
   34.9384  -17.9850   35.7249 N   0  0  0  0  0  0  0  0  0  0  0  0
   35.4268  -18.7043   36.7313 N   0  0  0  0  0  0  0  0  0  0  0  0
   34.8007  -19.7626   37.2825 C   0  0  0  0  0  0  0  0  0  0  0  0
   33.5711  -20.1292   36.7733 C   0  0  0  0  0  0  0  0  0  0  0  0
   33.0291  -19.4062   35.7264 C   0  0  0  0  0  0  0  0  0  0  0  0
   33.7441  -18.3254   35.2160 C   0  0  0  0  0  0  0  0  0  0  0  0
   33.3113  -17.6356   34.2766 O   0  0  0  0  0  0  0  0  0  0  0  0
   35.4331  -20.4869   38.3931 C   0  0  0  0  0  0  0  0  0  0  0  0
   34.7589  -21.0092   39.4603 C   0  0  0  0  0  0  0  0  0  0  0  0
   35.4201  -21.6872   40.4837 C   0  0  0  0  0  0  0  0  0  0  0  0
   34.7349  -22.1935   41.5254 F   0  0  0  0  0  0  0  0  0  0  0  0
   36.7846  -21.8552   40.4543 C   0  0  0  0  0  0  0  0  0  0  0  0
   37.4731  -21.3319   39.3822 C   0  0  0  0  0  0  0  0  0  0  0  0
   38.8156  -21.4952   39.3500 F   0  0  0  0  0  0  0  0  0  0  0  0
   36.8058  -20.6638   38.3774 C   0  0  0  0  0  0  0  0  0  0  0  0
   35.7327  -16.8951   35.2506 C   0  0  0  0  0  0  0  0  0  0  0  0
   34.8789  -13.7118   37.0427 C   0  0  0  0  0  0  0  0  0  0  0  0
   36.0635  -13.5521   37.7426 C   0  0  0  0  0  0  0  0  0  0  0  0
   37.1126  -14.4289   37.6511 C   0  0  0  0  0  0  0  0  0  0  0  0
   37.0054  -15.5245   36.8326 C   0  0  0  0  0  0  0  0  0  0  0  0
   35.8593  -15.7332   36.1180 C   0  0  0  0  0  0  0  0  0  0  0  0
   34.8287  -14.8316   36.2358 C   0  0  0  0  0  0  0  0  0  0  0  0
   30.4115  -10.1973   37.4590 C   0  0  0  0  0  0  0  0  0  0  0  0
   31.6262  -11.0839   37.3695 C   0  0  0  0  0  0  0  0  0  0  0  0
   32.8690  -10.6273   37.7471 C   0  0  0  0  0  0  0  0  0  0  0  0
   33.9820  -11.4671   37.6557 C   0  0  0  0  0  0  0  0  0  0  0  0
   33.8051  -12.7452   37.1847 C   0  0  0  0  0  0  0  0  0  0  0  0
   32.5681  -13.1193   36.8365 N   0  0  0  0  0  0  0  0  0  0  0  0
   31.5152  -12.3318   36.9206 N   0  0  0  0  0  0  0  0  0  0  0  0
 23 24  1  0  0  0
 24 25  2  0  0  0
 25 26  1  0  0  0
 26 27  2  0  0  0
 27 17  1  0  0  0
 17 18  2  0  0  0
 18 19  1  0  0  0
 19 20  2  0  0  0
 20 21  1  0  0  0
 21 16  1  0  0  0
 16  1  1  0  0  0
  1  2  1  0  0  0
  2  3  2  0  0  0
  3  8  1  0  0  0
  8  9  2  0  0  0
  9 10  1  0  0  0
 10 11  1  0  0  0
 10 12  2  0  0  0
 12 13  1  0  0  0
 13 14  1  0  0  0
 13 15  2  0  0  0
  3  4  1  0  0  0
  4  5  2  0  0  0
  5  6  1  0  0  0
  6  7  2  0  0  0
 21 22  2  0  0  0
 27 28  1  0  0  0
 28 29  2  0  0  0
 29 24  1  0  0  0
 22 17  1  0  0  0
  6  1  1  0  0  0
 15  8  1  0  0  0
M  END
> <minimizedAffinity>
-8.28994

> <CNNscore>
0.3840729892

> <CNNaffinity>
5.5459985733

> <CNN_VS>
2.1300683022

> <CNNaffinity_variance>
0.1935457289

$$$$
[H]c1c(-c2c([H])c([H])c([H])c(C([H])([H])n3nc(-c4c([H])c(F)c([H])c(F)c4[H])c([H])c([H])c3=O)c2[H])nnc(C([H])([H])[H])c1[H]


 29 32  0  0  0  0  0  0  0  0999 V2000
   33.8350  -18.8590   35.0793 N   0  0  0  0  0  0  0  0  0  0  0  0
   33.7585  -19.7952   36.0208 N   0  0  0  0  0  0  0  0  0  0  0  0
   32.6172  -20.4083   36.3914 C   0  0  0  0  0  0  0  0  0  0  0  0
   31.4470  -20.0449   35.7558 C   0  0  0  0  0  0  0  0  0  0  0  0
   31.4847  -19.0746   34.7710 C   0  0  0  0  0  0  0  0  0  0  0  0
   32.7081  -18.4916   34.4497 C   0  0  0  0  0  0  0  0  0  0  0  0
   32.8084  -17.6140   33.5749 O   0  0  0  0  0  0  0  0  0  0  0  0
   32.6479  -21.4311   37.4455 C   0  0  0  0  0  0  0  0  0  0  0  0
   31.7264  -22.4304   37.5815 C   0  0  0  0  0  0  0  0  0  0  0  0
   31.8129  -23.3718   38.6065 C   0  0  0  0  0  0  0  0  0  0  0  0
   30.8933  -24.3477   38.7207 F   0  0  0  0  0  0  0  0  0  0  0  0
   32.8366  -23.3268   39.5234 C   0  0  0  0  0  0  0  0  0  0  0  0
   33.7706  -22.3226   39.3944 C   0  0  0  0  0  0  0  0  0  0  0  0
   34.7792  -22.2754   40.2948 F   0  0  0  0  0  0  0  0  0  0  0  0
   33.6723  -21.3987   38.3757 C   0  0  0  0  0  0  0  0  0  0  0  0
   35.1259  -18.3118   34.8004 C   0  0  0  0  0  0  0  0  0  0  0  0
   35.5793  -15.1874   36.8267 C   0  0  0  0  0  0  0  0  0  0  0  0
   36.6767  -15.5884   37.5705 C   0  0  0  0  0  0  0  0  0  0  0  0
   37.2647  -16.8189   37.4359 C   0  0  0  0  0  0  0  0  0  0  0  0
   36.7577  -17.7119   36.5263 C   0  0  0  0  0  0  0  0  0  0  0  0
   35.6754  -17.3704   35.7648 C   0  0  0  0  0  0  0  0  0  0  0  0
   35.1131  -16.1270   35.9282 C   0  0  0  0  0  0  0  0  0  0  0  0
   33.0896  -10.1677   37.8693 C   0  0  0  0  0  0  0  0  0  0  0  0
   33.7794  -11.4689   37.5524 C   0  0  0  0  0  0  0  0  0  0  0  0
   34.7404  -11.5431   36.5693 C   0  0  0  0  0  0  0  0  0  0  0  0
   35.3674  -12.7608   36.2922 C   0  0  0  0  0  0  0  0  0  0  0  0
   35.0036  -13.8685   37.0183 C   0  0  0  0  0  0  0  0  0  0  0  0
   34.0621  -13.7205   37.9581 N   0  0  0  0  0  0  0  0  0  0  0  0
   33.4677  -12.5751   38.2235 N   0  0  0  0  0  0  0  0  0  0  0  0
 23 24  1  0  0  0
 24 25  2  0  0  0
 25 26  1  0  0  0
 26 27  2  0  0  0
 27 17  1  0  0  0
 17 18  2  0  0  0
 18 19  1  0  0  0
 19 20  2  0  0  0
 20 21  1  0  0  0
 21 16  1  0  0  0
 16  1  1  0  0  0
  1  2  1  0  0  0
  2  3  2  0  0  0
  3  8  1  0  0  0
  8  9  2  0  0  0
  9 10  1  0  0  0
 10 11  1  0  0  0
 10 12  2  0  0  0
 12 13  1  0  0  0
 13 14  1  0  0  0
 13 15  2  0  0  0
  3  4  1  0  0  0
  4  5  2  0  0  0
  5  6  1  0  0  0
  6  7  2  0  0  0
 21 22  2  0  0  0
 27 28  1  0  0  0
 28 29  2  0  0  0
 29 24  1  0  0  0
 22 17  1  0  0  0
  6  1  1  0  0  0
 15  8  1  0  0  0
M  END
> <minimizedAffinity>
-7.31428

> <CNNscore>
0.2851389647

> <CNNaffinity>
5.2379884720

> <CNN_VS>
1.4935545921

> <CNNaffinity_variance>
0.1909407824

$$$$
[H]c1c(-c2c([H])c([H])c([H])c(C([H])([H])n3nc(-c4c([H])c(F)c([H])c(F)c4[H])c([H])c([H])c3=O)c2[H])nnc(C([H])([H])[H])c1[H]


 29 32  0  0  0  0  0  0  0  0999 V2000
   36.0188  -17.6958   35.3032 N   0  0  0  0  0  0  0  0  0  0  0  0
   35.4917  -16.5030   35.5641 N   0  0  0  0  0  0  0  0  0  0  0  0
   35.9310  -15.6734   36.5308 C   0  0  0  0  0  0  0  0  0  0  0  0
   36.9981  -16.0831   37.3047 C   0  0  0  0  0  0  0  0  0  0  0  0
   37.5741  -17.3173   37.0648 C   0  0  0  0  0  0  0  0  0  0  0  0
   37.0570  -18.1123   36.0448 C   0  0  0  0  0  0  0  0  0  0  0  0
   37.5295  -19.2313   35.7798 O   0  0  0  0  0  0  0  0  0  0  0  0
   35.2732  -14.3755   36.7326 C   0  0  0  0  0  0  0  0  0  0  0  0
   35.6855  -13.2024   36.1667 C   0  0  0  0  0  0  0  0  0  0  0  0
   35.0153  -12.0020   36.3992 C   0  0  0  0  0  0  0  0  0  0  0  0
   35.4397  -10.8584   35.8307 F   0  0  0  0  0  0  0  0  0  0  0  0
   33.9075  -11.9565   37.2126 C   0  0  0  0  0  0  0  0  0  0  0  0
   33.4843  -13.1344   37.7877 C   0  0  0  0  0  0  0  0  0  0  0  0
   32.3947  -13.0934   38.5885 F   0  0  0  0  0  0  0  0  0  0  0  0
   34.1569  -14.3141   37.5487 C   0  0  0  0  0  0  0  0  0  0  0  0
   35.4386  -18.4514   34.2372 C   0  0  0  0  0  0  0  0  0  0  0  0
   32.3254  -20.4719   34.7839 C   0  0  0  0  0  0  0  0  0  0  0  0
   31.3953  -19.4656   34.5815 C   0  0  0  0  0  0  0  0  0  0  0  0
   31.7412  -18.1751   34.2768 C   0  0  0  0  0  0  0  0  0  0  0  0
   33.0670  -17.8422   34.1620 C   0  0  0  0  0  0  0  0  0  0  0  0
   34.0288  -18.7945   34.3513 C   0  0  0  0  0  0  0  0  0  0  0  0
   33.6429  -20.0781   34.6555 C   0  0  0  0  0  0  0  0  0  0  0  0
   30.6507  -25.8505   35.6492 C   0  0  0  0  0  0  0  0  0  0  0  0
   31.0885  -24.4193   35.4775 C   0  0  0  0  0  0  0  0  0  0  0  0
   31.1910  -23.5726   36.5584 C   0  0  0  0  0  0  0  0  0  0  0  0
   31.5991  -22.2488   36.3757 C   0  0  0  0  0  0  0  0  0  0  0  0
   31.8919  -21.8199   35.1042 C   0  0  0  0  0  0  0  0  0  0  0  0
   31.7696  -22.6990   34.1024 N   0  0  0  0  0  0  0  0  0  0  0  0
   31.3852  -23.9482   34.2688 N   0  0  0  0  0  0  0  0  0  0  0  0
 23 24  1  0  0  0
 24 25  2  0  0  0
 25 26  1  0  0  0
 26 27  2  0  0  0
 27 17  1  0  0  0
 17 18  2  0  0  0
 18 19  1  0  0  0
 19 20  2  0  0  0
 20 21  1  0  0  0
 21 16  1  0  0  0
 16  1  1  0  0  0
  1  2  1  0  0  0
  2  3  2  0  0  0
  3  8  1  0  0  0
  8  9  2  0  0  0
  9 10  1  0  0  0
 10 11  1  0  0  0
 10 12  2  0  0  0
 12 13  1  0  0  0
 13 14  1  0  0  0
 13 15  2  0  0  0
  3  4  1  0  0  0
  4  5  2  0  0  0
  5  6  1  0  0  0
  6  7  2  0  0  0
 21 22  2  0  0  0
 27 28  1  0  0  0
 28 29  2  0  0  0
 29 24  1  0  0  0
 22 17  1  0  0  0
  6  1  1  0  0  0
 15  8  1  0  0  0
M  END
> <minimizedAffinity>
-7.24383

> <CNNscore>
0.2848305702

> <CNNaffinity>
5.1886625290

> <CNN_VS>
1.4778896570

> <CNNaffinity_variance>
0.3422949314

$$$$
[H]c1c(-c2c([H])c([H])c([H])c(C([H])([H])n3nc(-c4c([H])c(F)c([H])c(F)c4[H])c([H])c([H])c3=O)c2[H])nnc(C([H])([H])[H])c1[H]


 29 32  0  0  0  0  0  0  0  0999 V2000
   35.4690  -17.4633   35.9785 N   0  0  0  0  0  0  0  0  0  0  0  0
   34.3997  -18.2122   36.2323 N   0  0  0  0  0  0  0  0  0  0  0  0
   33.8802  -19.1107   35.3729 C   0  0  0  0  0  0  0  0  0  0  0  0
   34.4940  -19.2687   34.1466 C   0  0  0  0  0  0  0  0  0  0  0  0
   35.6088  -18.5082   33.8445 C   0  0  0  0  0  0  0  0  0  0  0  0
   36.0798  -17.6020   34.7915 C   0  0  0  0  0  0  0  0  0  0  0  0
   37.0762  -16.8891   34.5806 O   0  0  0  0  0  0  0  0  0  0  0  0
   32.6933  -19.8861   35.7575 C   0  0  0  0  0  0  0  0  0  0  0  0
   31.4554  -19.7345   35.1998 C   0  0  0  0  0  0  0  0  0  0  0  0
   30.3677  -20.5039   35.6110 C   0  0  0  0  0  0  0  0  0  0  0  0
   29.1574  -20.3370   35.0470 F   0  0  0  0  0  0  0  0  0  0  0  0
   30.5040  -21.4496   36.6000 C   0  0  0  0  0  0  0  0  0  0  0  0
   31.7485  -21.6097   37.1683 C   0  0  0  0  0  0  0  0  0  0  0  0
   31.8862  -22.5392   38.1416 F   0  0  0  0  0  0  0  0  0  0  0  0
   32.8150  -20.8416   36.7515 C   0  0  0  0  0  0  0  0  0  0  0  0
   35.8967  -16.5609   37.0015 C   0  0  0  0  0  0  0  0  0  0  0  0
   33.8705  -13.4105   37.2073 C   0  0  0  0  0  0  0  0  0  0  0  0
   34.7816  -12.5476   36.6209 C   0  0  0  0  0  0  0  0  0  0  0  0
   36.0105  -12.9498   36.1673 C   0  0  0  0  0  0  0  0  0  0  0  0
   36.3762  -14.2662   36.2902 C   0  0  0  0  0  0  0  0  0  0  0  0
   35.5172  -15.1629   36.8612 C   0  0  0  0  0  0  0  0  0  0  0  0
   34.2931  -14.7217   37.3041 C   0  0  0  0  0  0  0  0  0  0  0  0
   28.8843  -11.6794   39.3576 C   0  0  0  0  0  0  0  0  0  0  0  0
   30.1901  -12.1077   38.7406 C   0  0  0  0  0  0  0  0  0  0  0  0
   30.5414  -11.7080   37.4708 C   0  0  0  0  0  0  0  0  0  0  0  0
   31.7579  -12.1173   36.9183 C   0  0  0  0  0  0  0  0  0  0  0  0
   32.5840  -12.9195   37.6670 C   0  0  0  0  0  0  0  0  0  0  0  0
   32.1763  -13.2680   38.8934 N   0  0  0  0  0  0  0  0  0  0  0  0
   31.0305  -12.8850   39.4192 N   0  0  0  0  0  0  0  0  0  0  0  0
 23 24  1  0  0  0
 24 25  2  0  0  0
 25 26  1  0  0  0
 26 27  2  0  0  0
 27 17  1  0  0  0
 17 18  2  0  0  0
 18 19  1  0  0  0
 19 20  2  0  0  0
 20 21  1  0  0  0
 21 16  1  0  0  0
 16  1  1  0  0  0
  1  2  1  0  0  0
  2  3  2  0  0  0
  3  8  1  0  0  0
  8  9  2  0  0  0
  9 10  1  0  0  0
 10 11  1  0  0  0
 10 12  2  0  0  0
 12 13  1  0  0  0
 13 14  1  0  0  0
 13 15  2  0  0  0
  3  4  1  0  0  0
  4  5  2  0  0  0
  5  6  1  0  0  0
  6  7  2  0  0  0
 21 22  2  0  0  0
 27 28  1  0  0  0
 28 29  2  0  0  0
 29 24  1  0  0  0
 22 17  1  0  0  0
  6  1  1  0  0  0
 15  8  1  0  0  0
M  END
> <minimizedAffinity>
-7.98933

> <CNNscore>
0.2800601125

> <CNNaffinity>
5.6271367073

> <CNN_VS>
1.5759365559

> <CNNaffinity_variance>
0.3311007917

$$$$
[H]c1c([H])c([H])c(-c2c([H])c([H])c(C([H])([H])Sc3nnc(-c4c([H])c([H])c5c(c4[H])O[C@@]([H])(C([H])([H])OC([H])([H])[H])C([H])([H])O5)o3)c([H])c2[H])c(C#N)c1[H]


 34 38  0  0  0  0  0  0  0  0999 V2000
   34.8034  -13.3263   37.1338 C   0  0  0  0  0  0  0  0  0  0  0  0
   36.1086  -13.0883   37.0128 N   0  0  0  0  0  0  0  0  0  0  0  0
   36.7250  -14.2413   36.8702 N   0  0  0  0  0  0  0  0  0  0  0  0
   35.8114  -15.2151   36.9003 C   0  0  0  0  0  0  0  0  0  0  0  0
   34.6379  -14.5988   37.0651 O   0  0  0  0  0  0  0  0  0  0  0  0
   29.1498  -11.0105   37.4895 C   0  0  0  0  0  0  0  0  0  0  0  0
   29.6025   -9.8627   38.3802 C   0  0  0  0  0  0  0  0  0  0  0  0
   30.8451   -9.3890   37.8254 O   0  0  0  0  0  0  0  0  0  0  0  0
   31.8375  -10.3374   37.6528 C   0  0  0  0  0  0  0  0  0  0  0  0
   33.1744   -9.9611   37.4909 C   0  0  0  0  0  0  0  0  0  0  0  0
   34.1084  -10.9627   37.3240 C   0  0  0  0  0  0  0  0  0  0  0  0
   33.7664  -12.2950   37.3129 C   0  0  0  0  0  0  0  0  0  0  0  0
   32.4605  -12.6361   37.4720 C   0  0  0  0  0  0  0  0  0  0  0  0
   31.4750  -11.6674   37.6445 C   0  0  0  0  0  0  0  0  0  0  0  0
   30.1491  -12.0417   37.8052 O   0  0  0  0  0  0  0  0  0  0  0  0
   27.8089  -11.5527   37.8435 C   0  0  0  0  0  0  0  0  0  0  0  0
   26.6523  -13.2896   38.9644 C   0  0  0  0  0  0  0  0  0  0  0  0
   27.6477  -12.4021   38.8501 O   0  0  0  0  0  0  0  0  0  0  0  0
   36.0731  -16.9620   36.7552 S   0  0  0  0  0  0  0  0  0  0  0  0
   35.7274  -17.6234   35.1219 C   0  0  0  0  0  0  0  0  0  0  0  0
   34.6683  -18.6525   35.1276 C   0  0  0  0  0  0  0  0  0  0  0  0
   34.2473  -19.1551   36.3586 C   0  0  0  0  0  0  0  0  0  0  0  0
   33.2784  -20.1314   36.4206 C   0  0  0  0  0  0  0  0  0  0  0  0
   32.6849  -20.6534   35.2998 C   0  0  0  0  0  0  0  0  0  0  0  0
   33.1061  -20.1522   34.0840 C   0  0  0  0  0  0  0  0  0  0  0  0
   34.0804  -19.1710   34.0162 C   0  0  0  0  0  0  0  0  0  0  0  0
   31.6509  -21.6765   35.3116 C   0  0  0  0  0  0  0  0  0  0  0  0
   31.9932  -23.0312   35.2072 C   0  0  0  0  0  0  0  0  0  0  0  0
   31.0309  -24.0113   35.2302 C   0  0  0  0  0  0  0  0  0  0  0  0
   29.6914  -23.7153   35.3561 C   0  0  0  0  0  0  0  0  0  0  0  0
   29.3395  -22.3896   35.4594 C   0  0  0  0  0  0  0  0  0  0  0  0
   30.3161  -21.3884   35.4362 C   0  0  0  0  0  0  0  0  0  0  0  0
   29.8973  -20.0153   35.5327 C   0  0  0  0  0  0  0  0  0  0  0  0
   29.5760  -18.9002   35.6281 N   0  0  0  0  0  0  0  0  0  0  0  0
 17 18  1  0  0  0
 18 16  1  0  0  0
 16  6  1  0  0  0
  6  7  1  0  0  0
  7  8  1  0  0  0
  8  9  1  0  0  0
  9 10  2  0  0  0
 10 11  1  0  0  0
 11 12  2  0  0  0
 12  1  1  0  0  0
  1  2  2  0  0  0
  2  3  1  0  0  0
  3  4  2  0  0  0
  4 19  1  0  0  0
 19 20  1  0  0  0
 20 21  1  0  0  0
 21 22  2  0  0  0
 22 23  1  0  0  0
 23 24  2  0  0  0
 24 27  1  0  0  0
 27 28  2  0  0  0
 28 29  1  0  0  0
 29 30  2  0  0  0
 30 31  1  0  0  0
 31 32  2  0  0  0
 32 33  1  0  0  0
 33 34  3  0  0  0
 24 25  1  0  0  0
 25 26  2  0  0  0
  4  5  1  0  0  0
 12 13  1  0  0  0
 13 14  2  0  0  0
 14 15  1  0  0  0
 15  6  1  0  0  0
 14  9  1  0  0  0
  5  1  1  0  0  0
 26 21  1  0  0  0
 32 27  1  0  0  0
M  END
> <minimizedAffinity>
-8.61958

> <CNNscore>
0.6026595235

> <CNNaffinity>
6.2673592567

> <CNN_VS>
3.7770836353

> <CNNaffinity_variance>
0.3235571384

$$$$
[H]c1c([H])c([H])c(-c2c([H])c([H])c(C([H])([H])Sc3nnc(-c4c([H])c([H])c5c(c4[H])O[C@@]([H])(C([H])([H])OC([H])([H])[H])C([H])([H])O5)o3)c([H])c2[H])c(C#N)c1[H]


 34 38  0  0  0  0  0  0  0  0999 V2000
   34.6656  -14.0915   36.8644 C   0  0  0  0  0  0  0  0  0  0  0  0
   35.9948  -14.0986   36.9538 N   0  0  0  0  0  0  0  0  0  0  0  0
   36.4185  -15.3130   36.6790 N   0  0  0  0  0  0  0  0  0  0  0  0
   35.3581  -16.0804   36.4142 C   0  0  0  0  0  0  0  0  0  0  0  0
   34.2968  -15.2794   36.5417 O   0  0  0  0  0  0  0  0  0  0  0  0
   29.4516  -10.9352   37.4167 C   0  0  0  0  0  0  0  0  0  0  0  0
   30.0928   -9.9051   38.3352 C   0  0  0  0  0  0  0  0  0  0  0  0
   31.3854   -9.6116   37.7702 O   0  0  0  0  0  0  0  0  0  0  0  0
   32.2139  -10.6966   37.5452 C   0  0  0  0  0  0  0  0  0  0  0  0
   33.5905  -10.5282   37.3675 C   0  0  0  0  0  0  0  0  0  0  0  0
   34.3531  -11.6568   37.1477 C   0  0  0  0  0  0  0  0  0  0  0  0
   33.8062  -12.9179   37.0996 C   0  0  0  0  0  0  0  0  0  0  0  0
   32.4657  -13.0564   37.2750 C   0  0  0  0  0  0  0  0  0  0  0  0
   31.6471  -11.9525   37.5004 C   0  0  0  0  0  0  0  0  0  0  0  0
   30.2817  -12.1206   37.6767 O   0  0  0  0  0  0  0  0  0  0  0  0
   28.0481  -11.2737   37.7809 C   0  0  0  0  0  0  0  0  0  0  0  0
   27.5070  -12.0795   39.9417 C   0  0  0  0  0  0  0  0  0  0  0  0
   27.7693  -12.2460   38.6398 O   0  0  0  0  0  0  0  0  0  0  0  0
   35.3351  -17.7993   35.9829 S   0  0  0  0  0  0  0  0  0  0  0  0
   34.2370  -18.2001   34.6197 C   0  0  0  0  0  0  0  0  0  0  0  0
   33.1194  -19.0795   35.0175 C   0  0  0  0  0  0  0  0  0  0  0  0
   31.9474  -19.0347   34.2626 C   0  0  0  0  0  0  0  0  0  0  0  0
   30.8668  -19.8175   34.6022 C   0  0  0  0  0  0  0  0  0  0  0  0
   30.8813  -20.6675   35.6785 C   0  0  0  0  0  0  0  0  0  0  0  0
   32.0441  -20.7071   36.4223 C   0  0  0  0  0  0  0  0  0  0  0  0
   33.1332  -19.9217   36.0853 C   0  0  0  0  0  0  0  0  0  0  0  0
   29.7721  -21.5219   36.0727 C   0  0  0  0  0  0  0  0  0  0  0  0
   28.7644  -21.0319   36.9140 C   0  0  0  0  0  0  0  0  0  0  0  0
   27.7027  -21.8206   37.2854 C   0  0  0  0  0  0  0  0  0  0  0  0
   27.5752  -23.1226   36.8536 C   0  0  0  0  0  0  0  0  0  0  0  0
   28.5568  -23.6182   36.0274 C   0  0  0  0  0  0  0  0  0  0  0  0
   29.6397  -22.8186   35.6469 C   0  0  0  0  0  0  0  0  0  0  0  0
   30.6488  -23.3867   34.7930 C   0  0  0  0  0  0  0  0  0  0  0  0
   31.4496  -23.8647   34.0959 N   0  0  0  0  0  0  0  0  0  0  0  0
 17 18  1  0  0  0
 18 16  1  0  0  0
 16  6  1  0  0  0
  6  7  1  0  0  0
  7  8  1  0  0  0
  8  9  1  0  0  0
  9 10  2  0  0  0
 10 11  1  0  0  0
 11 12  2  0  0  0
 12  1  1  0  0  0
  1  2  2  0  0  0
  2  3  1  0  0  0
  3  4  2  0  0  0
  4 19  1  0  0  0
 19 20  1  0  0  0
 20 21  1  0  0  0
 21 22  2  0  0  0
 22 23  1  0  0  0
 23 24  2  0  0  0
 24 27  1  0  0  0
 27 28  2  0  0  0
 28 29  1  0  0  0
 29 30  2  0  0  0
 30 31  1  0  0  0
 31 32  2  0  0  0
 32 33  1  0  0  0
 33 34  3  0  0  0
 24 25  1  0  0  0
 25 26  2  0  0  0
  4  5  1  0  0  0
 12 13  1  0  0  0
 13 14  2  0  0  0
 14 15  1  0  0  0
 15  6  1  0  0  0
 14  9  1  0  0  0
  5  1  1  0  0  0
 26 21  1  0  0  0
 32 27  1  0  0  0
M  END
> <minimizedAffinity>
-7.96996

> <CNNscore>
0.5274088383

> <CNNaffinity>
5.9342312813

> <CNN_VS>
3.1297659874

> <CNNaffinity_variance>
0.2741921246

$$$$
[H]c1c([H])c([H])c(-c2c([H])c([H])c(C([H])([H])Sc3nnc(-c4c([H])c([H])c5c(c4[H])O[C@@]([H])(C([H])([H])OC([H])([H])[H])C([H])([H])O5)o3)c([H])c2[H])c(C#N)c1[H]


 34 38  0  0  0  0  0  0  0  0999 V2000
   35.1342  -15.7457   36.7591 C   0  0  0  0  0  0  0  0  0  0  0  0
   36.1293  -16.3325   37.4226 N   0  0  0  0  0  0  0  0  0  0  0  0
   36.1426  -17.6075   37.0999 N   0  0  0  0  0  0  0  0  0  0  0  0
   35.1548  -17.8331   36.2298 C   0  0  0  0  0  0  0  0  0  0  0  0
   34.5597  -16.6508   36.0505 O   0  0  0  0  0  0  0  0  0  0  0  0
   31.4938  -10.8432   37.1675 C   0  0  0  0  0  0  0  0  0  0  0  0
   32.5834  -10.0036   37.8183 C   0  0  0  0  0  0  0  0  0  0  0  0
   33.7975  -10.2915   37.0977 O   0  0  0  0  0  0  0  0  0  0  0  0
   34.1519  -11.6258   37.0072 C   0  0  0  0  0  0  0  0  0  0  0  0
   35.4579  -12.0047   36.6816 C   0  0  0  0  0  0  0  0  0  0  0  0
   35.7369  -13.3539   36.6101 C   0  0  0  0  0  0  0  0  0  0  0  0
   34.7836  -14.3171   36.8458 C   0  0  0  0  0  0  0  0  0  0  0  0
   33.5211  -13.9245   37.1605 C   0  0  0  0  0  0  0  0  0  0  0  0
   33.1826  -12.5764   37.2469 C   0  0  0  0  0  0  0  0  0  0  0  0
   31.8869  -12.2016   37.5702 O   0  0  0  0  0  0  0  0  0  0  0  0
   30.1314  -10.5842   37.7097 C   0  0  0  0  0  0  0  0  0  0  0  0
   27.9820  -11.5559   37.9251 C   0  0  0  0  0  0  0  0  0  0  0  0
   29.0616  -11.1975   37.2198 O   0  0  0  0  0  0  0  0  0  0  0  0
   34.7064  -19.3658   35.4611 S   0  0  0  0  0  0  0  0  0  0  0  0
   33.0064  -19.4295   34.8859 C   0  0  0  0  0  0  0  0  0  0  0  0
   32.2220  -20.5079   35.5201 C   0  0  0  0  0  0  0  0  0  0  0  0
   30.9616  -20.7978   34.9979 C   0  0  0  0  0  0  0  0  0  0  0  0
   30.1790  -21.7789   35.5644 C   0  0  0  0  0  0  0  0  0  0  0  0
   30.5857  -22.5110   36.6505 C   0  0  0  0  0  0  0  0  0  0  0  0
   31.8342  -22.2191   37.1633 C   0  0  0  0  0  0  0  0  0  0  0  0
   32.6247  -21.2334   36.5977 C   0  0  0  0  0  0  0  0  0  0  0  0
   29.8027  -23.5637   37.2787 C   0  0  0  0  0  0  0  0  0  0  0  0
   29.1075  -23.3151   38.4696 C   0  0  0  0  0  0  0  0  0  0  0  0
   28.3523  -24.2934   39.0693 C   0  0  0  0  0  0  0  0  0  0  0  0
   28.2405  -25.5584   38.5353 C   0  0  0  0  0  0  0  0  0  0  0  0
   28.9174  -25.8180   37.3664 C   0  0  0  0  0  0  0  0  0  0  0  0
   29.6877  -24.8247   36.7525 C   0  0  0  0  0  0  0  0  0  0  0  0
   30.3893  -25.1488   35.5389 C   0  0  0  0  0  0  0  0  0  0  0  0
   30.9420  -25.3955   34.5442 N   0  0  0  0  0  0  0  0  0  0  0  0
 17 18  1  0  0  0
 18 16  1  0  0  0
 16  6  1  0  0  0
  6  7  1  0  0  0
  7  8  1  0  0  0
  8  9  1  0  0  0
  9 10  2  0  0  0
 10 11  1  0  0  0
 11 12  2  0  0  0
 12  1  1  0  0  0
  1  2  2  0  0  0
  2  3  1  0  0  0
  3  4  2  0  0  0
  4 19  1  0  0  0
 19 20  1  0  0  0
 20 21  1  0  0  0
 21 22  2  0  0  0
 22 23  1  0  0  0
 23 24  2  0  0  0
 24 27  1  0  0  0
 27 28  2  0  0  0
 28 29  1  0  0  0
 29 30  2  0  0  0
 30 31  1  0  0  0
 31 32  2  0  0  0
 32 33  1  0  0  0
 33 34  3  0  0  0
 24 25  1  0  0  0
 25 26  2  0  0  0
  4  5  1  0  0  0
 12 13  1  0  0  0
 13 14  2  0  0  0
 14 15  1  0  0  0
 15  6  1  0  0  0
 14  9  1  0  0  0
  5  1  1  0  0  0
 26 21  1  0  0  0
 32 27  1  0  0  0
M  END
> <minimizedAffinity>
-6.56881

> <CNNscore>
0.4059773386

> <CNNaffinity>
5.8113336563

> <CNN_VS>
2.3592698574

> <CNNaffinity_variance>
0.3201859295

$$$$
[H]c1c([H])c([H])c(-c2c([H])c([H])c(C([H])([H])Sc3nnc(-c4c([H])c([H])c5c(c4[H])O[C@@]([H])(C([H])([H])OC([H])([H])[H])C([H])([H])O5)o3)c([H])c2[H])c(C#N)c1[H]


 34 38  0  0  0  0  0  0  0  0999 V2000
   35.6435  -15.6904   36.6353 C   0  0  0  0  0  0  0  0  0  0  0  0
   36.5750  -16.2546   37.4026 N   0  0  0  0  0  0  0  0  0  0  0  0
   36.7681  -17.4841   36.9772 N   0  0  0  0  0  0  0  0  0  0  0  0
   35.9587  -17.7033   35.9378 C   0  0  0  0  0  0  0  0  0  0  0  0
   35.2831  -16.5641   35.7647 O   0  0  0  0  0  0  0  0  0  0  0  0
   31.5087  -11.2449   37.4067 C   0  0  0  0  0  0  0  0  0  0  0  0
   32.5357  -10.3022   38.0169 C   0  0  0  0  0  0  0  0  0  0  0  0
   33.7271  -10.4331   37.2172 O   0  0  0  0  0  0  0  0  0  0  0  0
   34.2226  -11.7160   37.0656 C   0  0  0  0  0  0  0  0  0  0  0  0
   35.5400  -11.9360   36.6518 C   0  0  0  0  0  0  0  0  0  0  0  0
   35.9636  -13.2428   36.5232 C   0  0  0  0  0  0  0  0  0  0  0  0
   35.1409  -14.3134   36.7858 C   0  0  0  0  0  0  0  0  0  0  0  0
   33.8645  -14.0744   37.1864 C   0  0  0  0  0  0  0  0  0  0  0  0
   33.3829  -12.7760   37.3335 C   0  0  0  0  0  0  0  0  0  0  0  0
   32.0760  -12.5587   37.7442 O   0  0  0  0  0  0  0  0  0  0  0  0
   30.1623  -11.1554   38.0363 C   0  0  0  0  0  0  0  0  0  0  0  0
   27.8262  -11.4478   37.7759 C   0  0  0  0  0  0  0  0  0  0  0  0
   29.0529  -11.1858   37.3090 O   0  0  0  0  0  0  0  0  0  0  0  0
   35.7952  -19.1822   34.9747 S   0  0  0  0  0  0  0  0  0  0  0  0
   34.2172  -19.3393   34.1320 C   0  0  0  0  0  0  0  0  0  0  0  0
   33.2867  -20.2602   34.8151 C   0  0  0  0  0  0  0  0  0  0  0  0
   32.4806  -21.0827   34.0284 C   0  0  0  0  0  0  0  0  0  0  0  0
   31.5799  -21.9446   34.6130 C   0  0  0  0  0  0  0  0  0  0  0  0
   31.4278  -22.0413   35.9726 C   0  0  0  0  0  0  0  0  0  0  0  0
   32.2283  -21.2242   36.7462 C   0  0  0  0  0  0  0  0  0  0  0  0
   33.1350  -20.3555   36.1633 C   0  0  0  0  0  0  0  0  0  0  0  0
   30.5000  -22.9416   36.6392 C   0  0  0  0  0  0  0  0  0  0  0  0
   30.8548  -24.2762   36.8769 C   0  0  0  0  0  0  0  0  0  0  0  0
   29.9963  -25.1366   37.5170 C   0  0  0  0  0  0  0  0  0  0  0  0
   28.7532  -24.7353   37.9544 C   0  0  0  0  0  0  0  0  0  0  0  0
   28.3903  -23.4280   37.7282 C   0  0  0  0  0  0  0  0  0  0  0  0
   29.2612  -22.5485   37.0766 C   0  0  0  0  0  0  0  0  0  0  0  0
   28.8305  -21.1945   36.8498 C   0  0  0  0  0  0  0  0  0  0  0  0
   28.5003  -20.0961   36.6494 N   0  0  0  0  0  0  0  0  0  0  0  0
 17 18  1  0  0  0
 18 16  1  0  0  0
 16  6  1  0  0  0
  6  7  1  0  0  0
  7  8  1  0  0  0
  8  9  1  0  0  0
  9 10  2  0  0  0
 10 11  1  0  0  0
 11 12  2  0  0  0
 12  1  1  0  0  0
  1  2  2  0  0  0
  2  3  1  0  0  0
  3  4  2  0  0  0
  4 19  1  0  0  0
 19 20  1  0  0  0
 20 21  1  0  0  0
 21 22  2  0  0  0
 22 23  1  0  0  0
 23 24  2  0  0  0
 24 27  1  0  0  0
 27 28  2  0  0  0
 28 29  1  0  0  0
 29 30  2  0  0  0
 30 31  1  0  0  0
 31 32  2  0  0  0
 32 33  1  0  0  0
 33 34  3  0  0  0
 24 25  1  0  0  0
 25 26  2  0  0  0
  4  5  1  0  0  0
 12 13  1  0  0  0
 13 14  2  0  0  0
 14 15  1  0  0  0
 15  6  1  0  0  0
 14  9  1  0  0  0
  5  1  1  0  0  0
 26 21  1  0  0  0
 32 27  1  0  0  0
M  END
> <minimizedAffinity>
-7.31746

> <CNNscore>
0.3761106133

> <CNNaffinity>
5.8714003563

> <CNN_VS>
2.2082960606

> <CNNaffinity_variance>
0.1717925221

$$$$
[H]c1c([H])c([H])c(-c2c([H])c([H])c(C([H])([H])Sc3nnc(-c4c([H])c([H])c5c(c4[H])O[C@@]([H])(C([H])([H])OC([H])([H])[H])C([H])([H])O5)o3)c([H])c2[H])c(C#N)c1[H]


 34 38  0  0  0  0  0  0  0  0999 V2000
   34.5992  -13.2435   36.8753 C   0  0  0  0  0  0  0  0  0  0  0  0
   35.9120  -13.0178   36.8917 N   0  0  0  0  0  0  0  0  0  0  0  0
   36.5258  -14.1410   36.5891 N   0  0  0  0  0  0  0  0  0  0  0  0
   35.6028  -15.0833   36.3795 C   0  0  0  0  0  0  0  0  0  0  0  0
   34.4265  -14.4793   36.5684 O   0  0  0  0  0  0  0  0  0  0  0  0
   28.9454  -11.0038   37.5624 C   0  0  0  0  0  0  0  0  0  0  0  0
   29.4164   -9.9255   38.5274 C   0  0  0  0  0  0  0  0  0  0  0  0
   30.6408   -9.4010   37.9781 O   0  0  0  0  0  0  0  0  0  0  0  0
   31.6331  -10.3258   37.7055 C   0  0  0  0  0  0  0  0  0  0  0  0
   32.9631   -9.9282   37.5375 C   0  0  0  0  0  0  0  0  0  0  0  0
   33.8974  -10.9070   37.2680 C   0  0  0  0  0  0  0  0  0  0  0  0
   33.5621  -12.2368   37.1621 C   0  0  0  0  0  0  0  0  0  0  0  0
   32.2629  -12.5989   37.3292 C   0  0  0  0  0  0  0  0  0  0  0  0
   31.2774  -11.6538   37.6031 C   0  0  0  0  0  0  0  0  0  0  0  0
   29.9584  -12.0491   37.7697 O   0  0  0  0  0  0  0  0  0  0  0  0
   27.6176  -11.5817   37.9090 C   0  0  0  0  0  0  0  0  0  0  0  0
   27.0012  -13.4707   39.1984 C   0  0  0  0  0  0  0  0  0  0  0  0
   27.4115  -12.2039   39.0626 O   0  0  0  0  0  0  0  0  0  0  0  0
   35.8570  -16.7821   35.9430 S   0  0  0  0  0  0  0  0  0  0  0  0
   36.1274  -17.8688   37.3469 C   0  0  0  0  0  0  0  0  0  0  0  0
   35.2590  -19.0631   37.3287 C   0  0  0  0  0  0  0  0  0  0  0  0
   35.1909  -19.8435   38.4827 C   0  0  0  0  0  0  0  0  0  0  0  0
   34.4138  -20.9797   38.5133 C   0  0  0  0  0  0  0  0  0  0  0  0
   33.6782  -21.3992   37.4343 C   0  0  0  0  0  0  0  0  0  0  0  0
   33.7500  -20.6227   36.2947 C   0  0  0  0  0  0  0  0  0  0  0  0
   34.5303  -19.4797   36.2586 C   0  0  0  0  0  0  0  0  0  0  0  0
   32.8345  -22.5839   37.4187 C   0  0  0  0  0  0  0  0  0  0  0  0
   31.4556  -22.4749   37.6424 C   0  0  0  0  0  0  0  0  0  0  0  0
   30.6419  -23.5815   37.6178 C   0  0  0  0  0  0  0  0  0  0  0  0
   31.1354  -24.8444   37.3742 C   0  0  0  0  0  0  0  0  0  0  0  0
   32.4873  -24.9677   37.1531 C   0  0  0  0  0  0  0  0  0  0  0  0
   33.3195  -23.8436   37.1773 C   0  0  0  0  0  0  0  0  0  0  0  0
   34.7294  -24.0254   36.9548 C   0  0  0  0  0  0  0  0  0  0  0  0
   35.8651  -24.1912   36.7588 N   0  0  0  0  0  0  0  0  0  0  0  0
 17 18  1  0  0  0
 18 16  1  0  0  0
 16  6  1  0  0  0
  6  7  1  0  0  0
  7  8  1  0  0  0
  8  9  1  0  0  0
  9 10  2  0  0  0
 10 11  1  0  0  0
 11 12  2  0  0  0
 12  1  1  0  0  0
  1  2  2  0  0  0
  2  3  1  0  0  0
  3  4  2  0  0  0
  4 19  1  0  0  0
 19 20  1  0  0  0
 20 21  1  0  0  0
 21 22  2  0  0  0
 22 23  1  0  0  0
 23 24  2  0  0  0
 24 27  1  0  0  0
 27 28  2  0  0  0
 28 29  1  0  0  0
 29 30  2  0  0  0
 30 31  1  0  0  0
 31 32  2  0  0  0
 32 33  1  0  0  0
 33 34  3  0  0  0
 24 25  1  0  0  0
 25 26  2  0  0  0
  4  5  1  0  0  0
 12 13  1  0  0  0
 13 14  2  0  0  0
 14 15  1  0  0  0
 15  6  1  0  0  0
 14  9  1  0  0  0
  5  1  1  0  0  0
 26 21  1  0  0  0
 32 27  1  0  0  0
M  END
> <minimizedAffinity>
-7.15355

> <CNNscore>
0.3040892482

> <CNNaffinity>
5.6751251221

> <CNN_VS>
1.7257444859

> <CNNaffinity_variance>
0.2296647727

$$$$
[H]c1c([H])c([H])c(-c2c([H])c([H])c(C([H])([H])Sc3nnc(-c4c([H])c([H])c5c(c4[H])O[C@@]([H])(C([H])([H])OC([H])([H])[H])C([H])([H])O5)o3)c([H])c2[H])c(C#N)c1[H]


 34 38  0  0  0  0  0  0  0  0999 V2000
   34.7070  -13.8130   37.2128 C   0  0  0  0  0  0  0  0  0  0  0  0
   35.7627  -14.0352   37.9944 N   0  0  0  0  0  0  0  0  0  0  0  0
   36.3688  -15.1214   37.5672 N   0  0  0  0  0  0  0  0  0  0  0  0
   35.6986  -15.5917   36.5121 C   0  0  0  0  0  0  0  0  0  0  0  0
   34.6788  -14.7481   36.3318 O   0  0  0  0  0  0  0  0  0  0  0  0
   29.2782  -10.9990   37.4639 C   0  0  0  0  0  0  0  0  0  0  0  0
   29.8237   -9.8769   38.3351 C   0  0  0  0  0  0  0  0  0  0  0  0
   31.1078   -9.5270   37.7831 O   0  0  0  0  0  0  0  0  0  0  0  0
   32.0136  -10.5629   37.6401 C   0  0  0  0  0  0  0  0  0  0  0  0
   33.3799  -10.3100   37.4838 C   0  0  0  0  0  0  0  0  0  0  0  0
   34.2228  -11.3937   37.3471 C   0  0  0  0  0  0  0  0  0  0  0  0
   33.7641  -12.6903   37.3601 C   0  0  0  0  0  0  0  0  0  0  0  0
   32.4319  -12.9112   37.5132 C   0  0  0  0  0  0  0  0  0  0  0  0
   31.5347  -11.8556   37.6557 C   0  0  0  0  0  0  0  0  0  0  0  0
   30.1796  -12.1076   37.8108 O   0  0  0  0  0  0  0  0  0  0  0  0
   27.8918  -11.4127   37.8156 C   0  0  0  0  0  0  0  0  0  0  0  0
   27.4078  -12.0901   40.0332 C   0  0  0  0  0  0  0  0  0  0  0  0
   27.3927  -11.2068   39.0276 O   0  0  0  0  0  0  0  0  0  0  0  0
   36.0625  -17.0281   35.5397 S   0  0  0  0  0  0  0  0  0  0  0  0
   37.4397  -18.0024   36.1554 C   0  0  0  0  0  0  0  0  0  0  0  0
   37.0309  -19.0201   37.1443 C   0  0  0  0  0  0  0  0  0  0  0  0
   35.7611  -18.9125   37.7111 C   0  0  0  0  0  0  0  0  0  0  0  0
   35.3373  -19.8217   38.6543 C   0  0  0  0  0  0  0  0  0  0  0  0
   36.1226  -20.8623   39.0804 C   0  0  0  0  0  0  0  0  0  0  0  0
   37.3788  -20.9633   38.5159 C   0  0  0  0  0  0  0  0  0  0  0  0
   37.8098  -20.0514   37.5677 C   0  0  0  0  0  0  0  0  0  0  0  0
   35.7187  -21.8543   40.0646 C   0  0  0  0  0  0  0  0  0  0  0  0
   35.9509  -21.6345   41.4288 C   0  0  0  0  0  0  0  0  0  0  0  0
   35.5640  -22.5543   42.3729 C   0  0  0  0  0  0  0  0  0  0  0  0
   34.9332  -23.7300   42.0301 C   0  0  0  0  0  0  0  0  0  0  0  0
   34.6984  -23.9604   40.6945 C   0  0  0  0  0  0  0  0  0  0  0  0
   35.0909  -23.0266   39.7298 C   0  0  0  0  0  0  0  0  0  0  0  0
   34.8367  -23.3193   38.3442 C   0  0  0  0  0  0  0  0  0  0  0  0
   34.6125  -23.5716   37.2299 N   0  0  0  0  0  0  0  0  0  0  0  0
 17 18  1  0  0  0
 18 16  1  0  0  0
 16  6  1  0  0  0
  6  7  1  0  0  0
  7  8  1  0  0  0
  8  9  1  0  0  0
  9 10  2  0  0  0
 10 11  1  0  0  0
 11 12  2  0  0  0
 12  1  1  0  0  0
  1  2  2  0  0  0
  2  3  1  0  0  0
  3  4  2  0  0  0
  4 19  1  0  0  0
 19 20  1  0  0  0
 20 21  1  0  0  0
 21 22  2  0  0  0
 22 23  1  0  0  0
 23 24  2  0  0  0
 24 27  1  0  0  0
 27 28  2  0  0  0
 28 29  1  0  0  0
 29 30  2  0  0  0
 30 31  1  0  0  0
 31 32  2  0  0  0
 32 33  1  0  0  0
 33 34  3  0  0  0
 24 25  1  0  0  0
 25 26  2  0  0  0
  4  5  1  0  0  0
 12 13  1  0  0  0
 13 14  2  0  0  0
 14 15  1  0  0  0
 15  6  1  0  0  0
 14  9  1  0  0  0
  5  1  1  0  0  0
 26 21  1  0  0  0
 32 27  1  0  0  0
M  END
> <minimizedAffinity>
-7.15406

> <CNNscore>
0.2822078168

> <CNNaffinity>
5.6280479431

> <CNN_VS>
1.5882791281

> <CNNaffinity_variance>
0.2359454632

$$$$
[H]c1c([H])c([H])c(-c2c([H])c([H])c(C([H])([H])Sc3nnc(-c4c([H])c([H])c5c(c4[H])O[C@@]([H])(C([H])([H])OC([H])([H])[H])C([H])([H])O5)o3)c([H])c2[H])c(C#N)c1[H]


 34 38  0  0  0  0  0  0  0  0999 V2000
   35.5148  -16.5534   35.5223 C   0  0  0  0  0  0  0  0  0  0  0  0
   34.6623  -17.5748   35.4543 N   0  0  0  0  0  0  0  0  0  0  0  0
   35.3094  -18.6195   34.9854 N   0  0  0  0  0  0  0  0  0  0  0  0
   36.5756  -18.2631   34.7545 C   0  0  0  0  0  0  0  0  0  0  0  0
   36.6534  -16.9758   35.1022 O   0  0  0  0  0  0  0  0  0  0  0  0
   31.9310  -11.9314   37.3240 C   0  0  0  0  0  0  0  0  0  0  0  0
   33.0444  -11.2986   38.1460 C   0  0  0  0  0  0  0  0  0  0  0  0
   34.2371  -11.3857   37.3423 O   0  0  0  0  0  0  0  0  0  0  0  0
   34.5769  -12.6479   36.8889 C   0  0  0  0  0  0  0  0  0  0  0  0
   35.8706  -12.9285   36.4388 C   0  0  0  0  0  0  0  0  0  0  0  0
   36.1354  -14.2101   36.0018 C   0  0  0  0  0  0  0  0  0  0  0  0
   35.1796  -15.1993   35.9971 C   0  0  0  0  0  0  0  0  0  0  0  0
   33.9292  -14.9026   36.4391 C   0  0  0  0  0  0  0  0  0  0  0  0
   33.6054  -13.6260   36.8918 C   0  0  0  0  0  0  0  0  0  0  0  0
   32.3217  -13.3487   37.3382 O   0  0  0  0  0  0  0  0  0  0  0  0
   30.5852  -11.8241   37.9521 C   0  0  0  0  0  0  0  0  0  0  0  0
   28.2854  -11.2978   37.7402 C   0  0  0  0  0  0  0  0  0  0  0  0
   29.5405  -11.3590   37.2791 O   0  0  0  0  0  0  0  0  0  0  0  0
   37.8933  -19.2650   34.1211 S   0  0  0  0  0  0  0  0  0  0  0  0
   39.0756  -19.7955   35.3642 C   0  0  0  0  0  0  0  0  0  0  0  0
   38.4593  -20.5899   36.4459 C   0  0  0  0  0  0  0  0  0  0  0  0
   38.2587  -21.9527   36.2275 C   0  0  0  0  0  0  0  0  0  0  0  0
   37.6683  -22.7360   37.1939 C   0  0  0  0  0  0  0  0  0  0  0  0
   37.2535  -22.2315   38.4000 C   0  0  0  0  0  0  0  0  0  0  0  0
   37.4545  -20.8816   38.6100 C   0  0  0  0  0  0  0  0  0  0  0  0
   38.0470  -20.0896   37.6414 C   0  0  0  0  0  0  0  0  0  0  0  0
   36.6353  -23.0171   39.4566 C   0  0  0  0  0  0  0  0  0  0  0  0
   35.2531  -23.2468   39.4527 C   0  0  0  0  0  0  0  0  0  0  0  0
   34.6546  -23.9976   40.4351 C   0  0  0  0  0  0  0  0  0  0  0  0
   35.3762  -24.5585   41.4658 C   0  0  0  0  0  0  0  0  0  0  0  0
   36.7343  -24.3417   41.4836 C   0  0  0  0  0  0  0  0  0  0  0  0
   37.3479  -23.5777   40.4854 C   0  0  0  0  0  0  0  0  0  0  0  0
   38.7694  -23.3666   40.5554 C   0  0  0  0  0  0  0  0  0  0  0  0
   39.9231  -23.2144   40.5955 N   0  0  0  0  0  0  0  0  0  0  0  0
 17 18  1  0  0  0
 18 16  1  0  0  0
 16  6  1  0  0  0
  6  7  1  0  0  0
  7  8  1  0  0  0
  8  9  1  0  0  0
  9 10  2  0  0  0
 10 11  1  0  0  0
 11 12  2  0  0  0
 12  1  1  0  0  0
  1  2  2  0  0  0
  2  3  1  0  0  0
  3  4  2  0  0  0
  4 19  1  0  0  0
 19 20  1  0  0  0
 20 21  1  0  0  0
 21 22  2  0  0  0
 22 23  1  0  0  0
 23 24  2  0  0  0
 24 27  1  0  0  0
 27 28  2  0  0  0
 28 29  1  0  0  0
 29 30  2  0  0  0
 30 31  1  0  0  0
 31 32  2  0  0  0
 32 33  1  0  0  0
 33 34  3  0  0  0
 24 25  1  0  0  0
 25 26  2  0  0  0
  4  5  1  0  0  0
 12 13  1  0  0  0
 13 14  2  0  0  0
 14 15  1  0  0  0
 15  6  1  0  0  0
 14  9  1  0  0  0
  5  1  1  0  0  0
 26 21  1  0  0  0
 32 27  1  0  0  0
M  END
> <minimizedAffinity>
-6.39743

> <CNNscore>
0.2769647241

> <CNNaffinity>
5.5926494598

> <CNN_VS>
1.5489666462

> <CNNaffinity_variance>
0.3830577433

$$$$
[H]c1c([H])c([H])c(-c2c([H])c([H])c(C([H])([H])Sc3nnc(-c4c([H])c([H])c5c(c4[H])O[C@@]([H])(C([H])([H])OC([H])([H])[H])C([H])([H])O5)o3)c([H])c2[H])c(C#N)c1[H]


 34 38  0  0  0  0  0  0  0  0999 V2000
   33.2895  -18.5923   35.1410 C   0  0  0  0  0  0  0  0  0  0  0  0
   32.9675  -17.4096   34.6192 N   0  0  0  0  0  0  0  0  0  0  0  0
   33.9903  -16.5982   34.7784 N   0  0  0  0  0  0  0  0  0  0  0  0
   34.9650  -17.2648   35.4023 C   0  0  0  0  0  0  0  0  0  0  0  0
   34.4837  -18.4941   35.6053 O   0  0  0  0  0  0  0  0  0  0  0  0
   28.7317  -22.2002   37.0547 C   0  0  0  0  0  0  0  0  0  0  0  0
   28.5938  -22.8638   35.6922 C   0  0  0  0  0  0  0  0  0  0  0  0
   29.9351  -23.1079   35.2260 O   0  0  0  0  0  0  0  0  0  0  0  0
   30.7774  -22.0109   35.1885 C   0  0  0  0  0  0  0  0  0  0  0  0
   31.9466  -22.0253   34.4218 C   0  0  0  0  0  0  0  0  0  0  0  0
   32.7370  -20.8945   34.4336 C   0  0  0  0  0  0  0  0  0  0  0  0
   32.4120  -19.7758   35.1648 C   0  0  0  0  0  0  0  0  0  0  0  0
   31.2706  -19.7856   35.9025 C   0  0  0  0  0  0  0  0  0  0  0  0
   30.4347  -20.8992   35.9281 C   0  0  0  0  0  0  0  0  0  0  0  0
   29.2750  -20.8839   36.6889 O   0  0  0  0  0  0  0  0  0  0  0  0
   27.4333  -21.9795   37.7495 C   0  0  0  0  0  0  0  0  0  0  0  0
   27.0125  -20.2838   39.3490 C   0  0  0  0  0  0  0  0  0  0  0  0
   27.3813  -21.5203   38.9933 O   0  0  0  0  0  0  0  0  0  0  0  0
   36.5664  -16.6691   35.8734 S   0  0  0  0  0  0  0  0  0  0  0  0
   36.5902  -15.7815   37.4343 C   0  0  0  0  0  0  0  0  0  0  0  0
   35.8947  -14.4804   37.3696 C   0  0  0  0  0  0  0  0  0  0  0  0
   34.5624  -14.4265   37.7786 C   0  0  0  0  0  0  0  0  0  0  0  0
   33.8600  -13.2438   37.7187 C   0  0  0  0  0  0  0  0  0  0  0  0
   34.4186  -12.0768   37.2635 C   0  0  0  0  0  0  0  0  0  0  0  0
   35.7377  -12.1365   36.8595 C   0  0  0  0  0  0  0  0  0  0  0  0
   36.4481  -13.3233   36.9173 C   0  0  0  0  0  0  0  0  0  0  0  0
   33.7241  -10.8008   37.1903 C   0  0  0  0  0  0  0  0  0  0  0  0
   34.3961   -9.6524   36.7512 C   0  0  0  0  0  0  0  0  0  0  0  0
   33.7522   -8.4421   36.6630 C   0  0  0  0  0  0  0  0  0  0  0  0
   32.4241   -8.2964   36.9989 C   0  0  0  0  0  0  0  0  0  0  0  0
   31.7508   -9.4148   37.4321 C   0  0  0  0  0  0  0  0  0  0  0  0
   32.4026  -10.6491   37.5236 C   0  0  0  0  0  0  0  0  0  0  0  0
   31.6597  -11.7871   37.9962 C   0  0  0  0  0  0  0  0  0  0  0  0
   31.0372  -12.6952   38.3750 N   0  0  0  0  0  0  0  0  0  0  0  0
 17 18  1  0  0  0
 18 16  1  0  0  0
 16  6  1  0  0  0
  6  7  1  0  0  0
  7  8  1  0  0  0
  8  9  1  0  0  0
  9 10  2  0  0  0
 10 11  1  0  0  0
 11 12  2  0  0  0
 12  1  1  0  0  0
  1  2  2  0  0  0
  2  3  1  0  0  0
  3  4  2  0  0  0
  4 19  1  0  0  0
 19 20  1  0  0  0
 20 21  1  0  0  0
 21 22  2  0  0  0
 22 23  1  0  0  0
 23 24  2  0  0  0
 24 27  1  0  0  0
 27 28  2  0  0  0
 28 29  1  0  0  0
 29 30  2  0  0  0
 30 31  1  0  0  0
 31 32  2  0  0  0
 32 33  1  0  0  0
 33 34  3  0  0  0
 24 25  1  0  0  0
 25 26  2  0  0  0
  4  5  1  0  0  0
 12 13  1  0  0  0
 13 14  2  0  0  0
 14 15  1  0  0  0
 15  6  1  0  0  0
 14  9  1  0  0  0
  5  1  1  0  0  0
 26 21  1  0  0  0
 32 27  1  0  0  0
M  END
> <minimizedAffinity>
-7.88250

> <CNNscore>
0.2726237476

> <CNNaffinity>
5.6420392990

> <CNN_VS>
1.5381538868

> <CNNaffinity_variance>
0.3978442848

$$$$
[H]c1c([H])c([H])c(-c2c([H])c([H])c(C([H])([H])Sc3nnc(-c4c([H])c([H])c5c(c4[H])O[C@@]([H])(C([H])([H])OC([H])([H])[H])C([H])([H])O5)o3)c([H])c2[H])c(C#N)c1[H]


 34 38  0  0  0  0  0  0  0  0999 V2000
   36.1131  -18.7372   37.4605 C   0  0  0  0  0  0  0  0  0  0  0  0
   37.2001  -18.6698   36.6934 N   0  0  0  0  0  0  0  0  0  0  0  0
   37.5258  -17.4032   36.5528 N   0  0  0  0  0  0  0  0  0  0  0  0
   36.6452  -16.6631   37.2313 C   0  0  0  0  0  0  0  0  0  0  0  0
   35.7910  -17.5338   37.7756 O   0  0  0  0  0  0  0  0  0  0  0  0
   33.2200  -22.6540   41.1675 C   0  0  0  0  0  0  0  0  0  0  0  0
   32.5127  -23.3370   40.0059 C   0  0  0  0  0  0  0  0  0  0  0  0
   33.4989  -23.4858   38.9660 O   0  0  0  0  0  0  0  0  0  0  0  0
   34.1504  -22.3304   38.5726 C   0  0  0  0  0  0  0  0  0  0  0  0
   34.8295  -22.2652   37.3521 C   0  0  0  0  0  0  0  0  0  0  0  0
   35.4555  -21.0794   37.0273 C   0  0  0  0  0  0  0  0  0  0  0  0
   35.4301  -19.9817   37.8557 C   0  0  0  0  0  0  0  0  0  0  0  0
   34.7638  -20.0691   39.0370 C   0  0  0  0  0  0  0  0  0  0  0  0
   34.1136  -21.2408   39.4164 C   0  0  0  0  0  0  0  0  0  0  0  0
   33.4402  -21.3044   40.6273 O   0  0  0  0  0  0  0  0  0  0  0  0
   32.3793  -22.5235   42.3895 C   0  0  0  0  0  0  0  0  0  0  0  0
   33.5756  -23.5628   44.1501 C   0  0  0  0  0  0  0  0  0  0  0  0
   32.9139  -22.5355   43.6039 O   0  0  0  0  0  0  0  0  0  0  0  0
   36.5966  -14.8986   37.3917 S   0  0  0  0  0  0  0  0  0  0  0  0
   35.6393  -14.0712   36.1174 C   0  0  0  0  0  0  0  0  0  0  0  0
   34.4004  -13.4554   36.6339 C   0  0  0  0  0  0  0  0  0  0  0  0
   33.2635  -13.4904   35.8268 C   0  0  0  0  0  0  0  0  0  0  0  0
   32.0877  -12.9123   36.2500 C   0  0  0  0  0  0  0  0  0  0  0  0
   31.9702  -12.2833   37.4631 C   0  0  0  0  0  0  0  0  0  0  0  0
   33.0993  -12.2515   38.2575 C   0  0  0  0  0  0  0  0  0  0  0  0
   34.2840  -12.8307   37.8363 C   0  0  0  0  0  0  0  0  0  0  0  0
   30.7501  -11.6673   37.9607 C   0  0  0  0  0  0  0  0  0  0  0  0
   29.7386  -12.4546   38.5267 C   0  0  0  0  0  0  0  0  0  0  0  0
   28.5857  -11.8883   39.0138 C   0  0  0  0  0  0  0  0  0  0  0  0
   28.3665  -10.5289   38.9713 C   0  0  0  0  0  0  0  0  0  0  0  0
   29.3503   -9.7426   38.4183 C   0  0  0  0  0  0  0  0  0  0  0  0
   30.5257  -10.3151   37.9210 C   0  0  0  0  0  0  0  0  0  0  0  0
   31.5191   -9.4525   37.3385 C   0  0  0  0  0  0  0  0  0  0  0  0
   32.3079   -8.7507   36.8477 N   0  0  0  0  0  0  0  0  0  0  0  0
 17 18  1  0  0  0
 18 16  1  0  0  0
 16  6  1  0  0  0
  6  7  1  0  0  0
  7  8  1  0  0  0
  8  9  1  0  0  0
  9 10  2  0  0  0
 10 11  1  0  0  0
 11 12  2  0  0  0
 12  1  1  0  0  0
  1  2  2  0  0  0
  2  3  1  0  0  0
  3  4  2  0  0  0
  4 19  1  0  0  0
 19 20  1  0  0  0
 20 21  1  0  0  0
 21 22  2  0  0  0
 22 23  1  0  0  0
 23 24  2  0  0  0
 24 27  1  0  0  0
 27 28  2  0  0  0
 28 29  1  0  0  0
 29 30  2  0  0  0
 30 31  1  0  0  0
 31 32  2  0  0  0
 32 33  1  0  0  0
 33 34  3  0  0  0
 24 25  1  0  0  0
 25 26  2  0  0  0
  4  5  1  0  0  0
 12 13  1  0  0  0
 13 14  2  0  0  0
 14 15  1  0  0  0
 15  6  1  0  0  0
 14  9  1  0  0  0
  5  1  1  0  0  0
 26 21  1  0  0  0
 32 27  1  0  0  0
M  END
> <minimizedAffinity>
-6.63415

> <CNNscore>
0.2603197098

> <CNNaffinity>
5.2855296135

> <CNN_VS>
1.3759275675

> <CNNaffinity_variance>
0.4683523774

$$$$
[H]c1c([H])c([H])c(C2([H])C([H])([H])[C@]2([H])N([H])C([H])([H])c2c([H])c([H])c(OC([H])([H])[H])c3c([H])c([H])c([H])c([H])c23)c([H])c1[H]


 24 27  0  0  0  0  0  0  0  0999 V2000
   36.2566  -16.0870   36.7473 C   0  0  0  0  0  0  0  0  0  0  0  0
   35.0105  -15.5503   36.5396 C   0  0  0  0  0  0  0  0  0  0  0  0
   34.0963  -16.1221   35.6658 C   0  0  0  0  0  0  0  0  0  0  0  0
   34.4144  -17.2648   34.9668 C   0  0  0  0  0  0  0  0  0  0  0  0
   35.6801  -17.8174   35.1723 C   0  0  0  0  0  0  0  0  0  0  0  0
   35.9890  -18.9625   34.4674 C   0  0  0  0  0  0  0  0  0  0  0  0
   37.2486  -19.4983   34.6826 C   0  0  0  0  0  0  0  0  0  0  0  0
   38.1539  -18.9344   35.5464 C   0  0  0  0  0  0  0  0  0  0  0  0
   37.8314  -17.7906   36.2437 C   0  0  0  0  0  0  0  0  0  0  0  0
   36.5663  -17.2328   36.0422 C   0  0  0  0  0  0  0  0  0  0  0  0
   37.3213  -14.0957   37.6716 C   0  0  0  0  0  0  0  0  0  0  0  0
   37.1727  -15.5047   37.6301 O   0  0  0  0  0  0  0  0  0  0  0  0
   33.4572  -17.9102   34.0287 C   0  0  0  0  0  0  0  0  0  0  0  0
   32.2119  -18.1165   34.7001 N   0  0  0  0  0  0  0  0  0  0  0  0
   31.4433  -18.4297   34.0564 H   0  0  0  0  0  0  0  0  0  0  0  0
   32.3054  -18.9503   35.8673 C   0  0  0  0  0  0  0  0  0  0  0  0
   31.5325  -20.2668   35.7262 C   0  0  0  0  0  0  0  0  0  0  0  0
   33.0061  -20.2446   35.8895 C   0  0  0  0  0  0  0  0  0  0  0  0
   33.5956  -20.6686   37.1814 C   0  0  0  0  0  0  0  0  0  0  0  0
   34.6868  -20.0633   37.7605 C   0  0  0  0  0  0  0  0  0  0  0  0
   35.2125  -20.4734   38.9542 C   0  0  0  0  0  0  0  0  0  0  0  0
   34.6540  -21.5248   39.6250 C   0  0  0  0  0  0  0  0  0  0  0  0
   33.5593  -22.1526   39.0708 C   0  0  0  0  0  0  0  0  0  0  0  0
   33.0394  -21.7254   37.8622 C   0  0  0  0  0  0  0  0  0  0  0  0
 11 12  1  0  0  0
 12  1  1  0  0  0
  1  2  2  0  0  0
  2  3  1  0  0  0
  3  4  2  0  0  0
  4 13  1  0  0  0
 13 14  1  0  0  0
 14 16  1  0  0  0
 16 17  1  0  0  0
 17 18  1  0  0  0
 18 19  1  0  0  0
 19 20  2  0  0  0
 20 21  1  0  0  0
 21 22  2  0  0  0
 22 23  1  0  0  0
 23 24  2  0  0  0
  4  5  1  0  0  0
  5  6  2  0  0  0
  6  7  1  0  0  0
  7  8  2  0  0  0
  8  9  1  0  0  0
  9 10  2  0  0  0
 10  1  1  0  0  0
 18 16  1  0  0  0
 24 19  1  0  0  0
 10  5  1  0  0  0
 14 15  1  0  0  0
M  END
> <minimizedAffinity>
-5.78184

> <CNNscore>
0.6252743006

> <CNNaffinity>
4.6023797989

> <CNN_VS>
2.8777499199

> <CNNaffinity_variance>
0.4051310420

$$$$
[H]c1c([H])c([H])c(C2([H])C([H])([H])[C@]2([H])N([H])C([H])([H])c2c([H])c([H])c(OC([H])([H])[H])c3c([H])c([H])c([H])c([H])c23)c([H])c1[H]


 24 27  0  0  0  0  0  0  0  0999 V2000
   34.3487  -12.9942   36.6989 C   0  0  0  0  0  0  0  0  0  0  0  0
   33.2349  -13.5062   36.0813 C   0  0  0  0  0  0  0  0  0  0  0  0
   33.1628  -14.8286   35.6664 C   0  0  0  0  0  0  0  0  0  0  0  0
   34.2232  -15.6844   35.8633 C   0  0  0  0  0  0  0  0  0  0  0  0
   35.3601  -15.1716   36.4909 C   0  0  0  0  0  0  0  0  0  0  0  0
   36.4171  -16.0371   36.6839 C   0  0  0  0  0  0  0  0  0  0  0  0
   37.5376  -15.5129   37.3079 C   0  0  0  0  0  0  0  0  0  0  0  0
   37.6108  -14.2056   37.7192 C   0  0  0  0  0  0  0  0  0  0  0  0
   36.5473  -13.3525   37.5198 C   0  0  0  0  0  0  0  0  0  0  0  0
   35.4067  -13.8598   36.8922 C   0  0  0  0  0  0  0  0  0  0  0  0
   33.3124  -11.0702   37.7842 C   0  0  0  0  0  0  0  0  0  0  0  0
   34.4138  -11.6598   37.1145 O   0  0  0  0  0  0  0  0  0  0  0  0
   34.1783  -17.1096   35.4398 C   0  0  0  0  0  0  0  0  0  0  0  0
   32.8483  -17.4328   35.0266 N   0  0  0  0  0  0  0  0  0  0  0  0
   32.6862  -17.2777   34.0005 H   0  0  0  0  0  0  0  0  0  0  0  0
   32.4020  -18.7325   35.4485 C   0  0  0  0  0  0  0  0  0  0  0  0
   31.0805  -19.1532   34.7949 C   0  0  0  0  0  0  0  0  0  0  0  0
   32.3383  -19.9011   34.5557 C   0  0  0  0  0  0  0  0  0  0  0  0
   32.5150  -21.2342   35.1785 C   0  0  0  0  0  0  0  0  0  0  0  0
   33.3962  -21.4897   36.2035 C   0  0  0  0  0  0  0  0  0  0  0  0
   33.5410  -22.7294   36.7618 C   0  0  0  0  0  0  0  0  0  0  0  0
   32.7942  -23.7790   36.3057 C   0  0  0  0  0  0  0  0  0  0  0  0
   31.9019  -23.5553   35.2793 C   0  0  0  0  0  0  0  0  0  0  0  0
   31.7674  -22.2950   34.7252 C   0  0  0  0  0  0  0  0  0  0  0  0
 11 12  1  0  0  0
 12  1  1  0  0  0
  1  2  2  0  0  0
  2  3  1  0  0  0
  3  4  2  0  0  0
  4 13  1  0  0  0
 13 14  1  0  0  0
 14 16  1  0  0  0
 16 17  1  0  0  0
 17 18  1  0  0  0
 18 19  1  0  0  0
 19 20  2  0  0  0
 20 21  1  0  0  0
 21 22  2  0  0  0
 22 23  1  0  0  0
 23 24  2  0  0  0
  4  5  1  0  0  0
  5  6  2  0  0  0
  6  7  1  0  0  0
  7  8  2  0  0  0
  8  9  1  0  0  0
  9 10  2  0  0  0
 10  1  1  0  0  0
 18 16  1  0  0  0
 24 19  1  0  0  0
 10  5  1  0  0  0
 14 15  1  0  0  0
M  END
> <minimizedAffinity>
-6.74371

> <CNNscore>
0.6197727323

> <CNNaffinity>
4.7074060440

> <CNN_VS>
2.9175219536

> <CNNaffinity_variance>
0.2264358103

$$$$
[H]c1c([H])c([H])c(C2([H])C([H])([H])[C@]2([H])N([H])C([H])([H])c2c([H])c([H])c(OC([H])([H])[H])c3c([H])c([H])c([H])c([H])c23)c([H])c1[H]


 24 27  0  0  0  0  0  0  0  0999 V2000
   35.9576  -15.8043   37.0191 C   0  0  0  0  0  0  0  0  0  0  0  0
   34.7868  -15.2222   36.6016 C   0  0  0  0  0  0  0  0  0  0  0  0
   33.9191  -15.8559   35.7230 C   0  0  0  0  0  0  0  0  0  0  0  0
   34.2090  -17.1095   35.2330 C   0  0  0  0  0  0  0  0  0  0  0  0
   35.3981  -17.7088   35.6526 C   0  0  0  0  0  0  0  0  0  0  0  0
   35.6793  -18.9650   35.1561 C   0  0  0  0  0  0  0  0  0  0  0  0
   36.8629  -19.5460   35.5822 C   0  0  0  0  0  0  0  0  0  0  0  0
   37.7220  -18.9210   36.4511 C   0  0  0  0  0  0  0  0  0  0  0  0
   37.4281  -17.6663   36.9389 C   0  0  0  0  0  0  0  0  0  0  0  0
   36.2396  -17.0612   36.5225 C   0  0  0  0  0  0  0  0  0  0  0  0
   37.4551  -13.9459   37.5265 C   0  0  0  0  0  0  0  0  0  0  0  0
   36.8272  -15.1590   37.9051 O   0  0  0  0  0  0  0  0  0  0  0  0
   33.2989  -17.8225   34.2970 C   0  0  0  0  0  0  0  0  0  0  0  0
   32.0366  -18.0263   34.9367 N   0  0  0  0  0  0  0  0  0  0  0  0
   31.2203  -17.7568   34.3333 H   0  0  0  0  0  0  0  0  0  0  0  0
   31.8719  -19.3357   35.5064 C   0  0  0  0  0  0  0  0  0  0  0  0
   30.5334  -19.9856   35.1365 C   0  0  0  0  0  0  0  0  0  0  0  0
   31.8264  -20.5714   34.7078 C   0  0  0  0  0  0  0  0  0  0  0  0
   32.3082  -21.8120   35.3597 C   0  0  0  0  0  0  0  0  0  0  0  0
   31.7457  -23.0511   35.1579 C   0  0  0  0  0  0  0  0  0  0  0  0
   32.2088  -24.1818   35.7716 C   0  0  0  0  0  0  0  0  0  0  0  0
   33.2727  -24.1120   36.6263 C   0  0  0  0  0  0  0  0  0  0  0  0
   33.8585  -22.8845   36.8496 C   0  0  0  0  0  0  0  0  0  0  0  0
   33.3780  -21.7500   36.2208 C   0  0  0  0  0  0  0  0  0  0  0  0
 11 12  1  0  0  0
 12  1  1  0  0  0
  1  2  2  0  0  0
  2  3  1  0  0  0
  3  4  2  0  0  0
  4 13  1  0  0  0
 13 14  1  0  0  0
 14 16  1  0  0  0
 16 17  1  0  0  0
 17 18  1  0  0  0
 18 19  1  0  0  0
 19 20  2  0  0  0
 20 21  1  0  0  0
 21 22  2  0  0  0
 22 23  1  0  0  0
 23 24  2  0  0  0
  4  5  1  0  0  0
  5  6  2  0  0  0
  6  7  1  0  0  0
  7  8  2  0  0  0
  8  9  1  0  0  0
  9 10  2  0  0  0
 10  1  1  0  0  0
 18 16  1  0  0  0
 24 19  1  0  0  0
 10  5  1  0  0  0
 14 15  1  0  0  0
M  END
> <minimizedAffinity>
-6.23227

> <CNNscore>
0.6097401977

> <CNNaffinity>
4.5538625717

> <CNN_VS>
2.7766730785

> <CNNaffinity_variance>
0.4745081961

$$$$
[H]c1c([H])c([H])c(C2([H])C([H])([H])[C@]2([H])N([H])C([H])([H])c2c([H])c([H])c(OC([H])([H])[H])c3c([H])c([H])c([H])c([H])c23)c([H])c1[H]


 24 27  0  0  0  0  0  0  0  0999 V2000
   35.2231  -15.9482   36.4805 C   0  0  0  0  0  0  0  0  0  0  0  0
   36.4861  -15.9256   37.0174 C   0  0  0  0  0  0  0  0  0  0  0  0
   37.4270  -16.9055   36.7331 C   0  0  0  0  0  0  0  0  0  0  0  0
   37.1195  -17.9497   35.8900 C   0  0  0  0  0  0  0  0  0  0  0  0
   35.8368  -17.9801   35.3396 C   0  0  0  0  0  0  0  0  0  0  0  0
   35.5386  -19.0303   34.4958 C   0  0  0  0  0  0  0  0  0  0  0  0
   34.2618  -19.0459   33.9579 C   0  0  0  0  0  0  0  0  0  0  0  0
   33.3301  -18.0778   34.2376 C   0  0  0  0  0  0  0  0  0  0  0  0
   33.6420  -17.0347   35.0822 C   0  0  0  0  0  0  0  0  0  0  0  0
   34.9241  -16.9988   35.6363 C   0  0  0  0  0  0  0  0  0  0  0  0
   34.5174  -13.6146   36.3817 C   0  0  0  0  0  0  0  0  0  0  0  0
   34.2800  -14.9565   36.7718 O   0  0  0  0  0  0  0  0  0  0  0  0
   38.1049  -19.0127   35.5558 C   0  0  0  0  0  0  0  0  0  0  0  0
   39.0252  -18.5084   34.5848 N   0  0  0  0  0  0  0  0  0  0  0  0
   39.1501  -17.4668   34.6369 H   0  0  0  0  0  0  0  0  0  0  0  0
   40.2862  -19.1979   34.5576 C   0  0  0  0  0  0  0  0  0  0  0  0
   41.2108  -18.7111   33.4357 C   0  0  0  0  0  0  0  0  0  0  0  0
   41.5735  -18.5535   34.8648 C   0  0  0  0  0  0  0  0  0  0  0  0
   42.6360  -19.4125   35.4387 C   0  0  0  0  0  0  0  0  0  0  0  0
   43.6304  -18.9490   36.2686 C   0  0  0  0  0  0  0  0  0  0  0  0
   44.6002  -19.7622   36.7858 C   0  0  0  0  0  0  0  0  0  0  0  0
   44.6103  -21.0952   36.4853 C   0  0  0  0  0  0  0  0  0  0  0  0
   43.6271  -21.5905   35.6561 C   0  0  0  0  0  0  0  0  0  0  0  0
   42.6528  -20.7544   35.1411 C   0  0  0  0  0  0  0  0  0  0  0  0
 11 12  1  0  0  0
 12  1  1  0  0  0
  1  2  2  0  0  0
  2  3  1  0  0  0
  3  4  2  0  0  0
  4 13  1  0  0  0
 13 14  1  0  0  0
 14 16  1  0  0  0
 16 17  1  0  0  0
 17 18  1  0  0  0
 18 19  1  0  0  0
 19 20  2  0  0  0
 20 21  1  0  0  0
 21 22  2  0  0  0
 22 23  1  0  0  0
 23 24  2  0  0  0
  4  5  1  0  0  0
  5  6  2  0  0  0
  6  7  1  0  0  0
  7  8  2  0  0  0
  8  9  1  0  0  0
  9 10  2  0  0  0
 10  1  1  0  0  0
 18 16  1  0  0  0
 24 19  1  0  0  0
 10  5  1  0  0  0
 14 15  1  0  0  0
M  END
> <minimizedAffinity>
-5.65982

> <CNNscore>
0.5211211443

> <CNNaffinity>
4.3822398186

> <CNN_VS>
2.2836778164

> <CNNaffinity_variance>
0.3030074537

$$$$
[H]c1c([H])c([H])c(C2([H])C([H])([H])[C@]2([H])N([H])C([H])([H])c2c([H])c([H])c(OC([H])([H])[H])c3c([H])c([H])c([H])c([H])c23)c([H])c1[H]


 24 27  0  0  0  0  0  0  0  0999 V2000
   34.0014  -14.5521   36.0109 C   0  0  0  0  0  0  0  0  0  0  0  0
   33.6118  -15.8084   35.6189 C   0  0  0  0  0  0  0  0  0  0  0  0
   34.4468  -16.9109   35.7364 C   0  0  0  0  0  0  0  0  0  0  0  0
   35.7140  -16.7785   36.2580 C   0  0  0  0  0  0  0  0  0  0  0  0
   36.1182  -15.5038   36.6593 C   0  0  0  0  0  0  0  0  0  0  0  0
   37.3897  -15.3817   37.1810 C   0  0  0  0  0  0  0  0  0  0  0  0
   37.7755  -14.1104   37.5745 C   0  0  0  0  0  0  0  0  0  0  0  0
   36.9513  -13.0191   37.4593 C   0  0  0  0  0  0  0  0  0  0  0  0
   35.6839  -13.1561   36.9364 C   0  0  0  0  0  0  0  0  0  0  0  0
   35.2736  -14.4293   36.5329 C   0  0  0  0  0  0  0  0  0  0  0  0
   32.5147  -12.9115   37.0364 C   0  0  0  0  0  0  0  0  0  0  0  0
   33.1538  -13.4455   35.8894 O   0  0  0  0  0  0  0  0  0  0  0  0
   36.6330  -17.9387   36.4070 C   0  0  0  0  0  0  0  0  0  0  0  0
   35.8694  -19.0995   36.7440 N   0  0  0  0  0  0  0  0  0  0  0  0
   35.9760  -19.8794   36.0485 H   0  0  0  0  0  0  0  0  0  0  0  0
   36.0601  -19.5563   38.0935 C   0  0  0  0  0  0  0  0  0  0  0  0
   34.8923  -20.4053   38.6091 C   0  0  0  0  0  0  0  0  0  0  0  0
   36.2547  -20.9699   38.4550 C   0  0  0  0  0  0  0  0  0  0  0  0
   37.0612  -21.2498   39.6664 C   0  0  0  0  0  0  0  0  0  0  0  0
   36.5214  -21.4570   40.9146 C   0  0  0  0  0  0  0  0  0  0  0  0
   37.2874  -21.7138   42.0177 C   0  0  0  0  0  0  0  0  0  0  0  0
   38.6482  -21.7739   41.9094 C   0  0  0  0  0  0  0  0  0  0  0  0
   39.2198  -21.5707   40.6718 C   0  0  0  0  0  0  0  0  0  0  0  0
   38.4307  -21.3119   39.5655 C   0  0  0  0  0  0  0  0  0  0  0  0
 11 12  1  0  0  0
 12  1  1  0  0  0
  1  2  2  0  0  0
  2  3  1  0  0  0
  3  4  2  0  0  0
  4 13  1  0  0  0
 13 14  1  0  0  0
 14 16  1  0  0  0
 16 17  1  0  0  0
 17 18  1  0  0  0
 18 19  1  0  0  0
 19 20  2  0  0  0
 20 21  1  0  0  0
 21 22  2  0  0  0
 22 23  1  0  0  0
 23 24  2  0  0  0
  4  5  1  0  0  0
  5  6  2  0  0  0
  6  7  1  0  0  0
  7  8  2  0  0  0
  8  9  1  0  0  0
  9 10  2  0  0  0
 10  1  1  0  0  0
 18 16  1  0  0  0
 24 19  1  0  0  0
 10  5  1  0  0  0
 14 15  1  0  0  0
M  END
> <minimizedAffinity>
-6.06680

> <CNNscore>
0.5193961263

> <CNNaffinity>
4.3910927773

> <CNN_VS>
2.2807166576

> <CNNaffinity_variance>
0.3013831675

$$$$
[H]c1c([H])c([H])c(C2([H])C([H])([H])[C@]2([H])N([H])C([H])([H])c2c([H])c([H])c(OC([H])([H])[H])c3c([H])c([H])c([H])c([H])c23)c([H])c1[H]


 24 27  0  0  0  0  0  0  0  0999 V2000
   33.8731  -18.1345   34.5362 C   0  0  0  0  0  0  0  0  0  0  0  0
   34.6136  -19.1900   34.0658 C   0  0  0  0  0  0  0  0  0  0  0  0
   35.9814  -19.2866   34.2807 C   0  0  0  0  0  0  0  0  0  0  0  0
   36.6515  -18.3109   34.9838 C   0  0  0  0  0  0  0  0  0  0  0  0
   35.9056  -17.2336   35.4660 C   0  0  0  0  0  0  0  0  0  0  0  0
   36.5863  -16.2614   36.1696 C   0  0  0  0  0  0  0  0  0  0  0  0
   35.8319  -15.1992   36.6413 C   0  0  0  0  0  0  0  0  0  0  0  0
   34.4793  -15.1020   36.4300 C   0  0  0  0  0  0  0  0  0  0  0  0
   33.8127  -16.0806   35.7254 C   0  0  0  0  0  0  0  0  0  0  0  0
   34.5537  -17.1613   35.2402 C   0  0  0  0  0  0  0  0  0  0  0  0
   31.6690  -19.1807   34.5064 C   0  0  0  0  0  0  0  0  0  0  0  0
   32.4944  -18.0442   34.3156 O   0  0  0  0  0  0  0  0  0  0  0  0
   38.1147  -18.3854   35.2409 C   0  0  0  0  0  0  0  0  0  0  0  0
   38.8143  -18.2587   34.0005 N   0  0  0  0  0  0  0  0  0  0  0  0
   39.5247  -17.4850   34.0049 H   0  0  0  0  0  0  0  0  0  0  0  0
   39.3684  -19.4912   33.5105 C   0  0  0  0  0  0  0  0  0  0  0  0
   40.8688  -19.3956   33.2099 C   0  0  0  0  0  0  0  0  0  0  0  0
   40.3429  -20.3008   34.2600 C   0  0  0  0  0  0  0  0  0  0  0  0
   40.3338  -21.7623   34.0147 C   0  0  0  0  0  0  0  0  0  0  0  0
   41.4011  -22.4583   33.4963 C   0  0  0  0  0  0  0  0  0  0  0  0
   41.3681  -23.8079   33.2791 C   0  0  0  0  0  0  0  0  0  0  0  0
   40.2435  -24.5239   33.5787 C   0  0  0  0  0  0  0  0  0  0  0  0
   39.1567  -23.8553   34.0997 C   0  0  0  0  0  0  0  0  0  0  0  0
   39.2062  -22.4895   34.3135 C   0  0  0  0  0  0  0  0  0  0  0  0
 11 12  1  0  0  0
 12  1  1  0  0  0
  1  2  2  0  0  0
  2  3  1  0  0  0
  3  4  2  0  0  0
  4 13  1  0  0  0
 13 14  1  0  0  0
 14 16  1  0  0  0
 16 17  1  0  0  0
 17 18  1  0  0  0
 18 19  1  0  0  0
 19 20  2  0  0  0
 20 21  1  0  0  0
 21 22  2  0  0  0
 22 23  1  0  0  0
 23 24  2  0  0  0
  4  5  1  0  0  0
  5  6  2  0  0  0
  6  7  1  0  0  0
  7  8  2  0  0  0
  8  9  1  0  0  0
  9 10  2  0  0  0
 10  1  1  0  0  0
 18 16  1  0  0  0
 24 19  1  0  0  0
 10  5  1  0  0  0
 14 15  1  0  0  0
M  END
> <minimizedAffinity>
-5.82194

> <CNNscore>
0.5104895234

> <CNNaffinity>
4.3432035446

> <CNN_VS>
2.2171599865

> <CNNaffinity_variance>
0.4084783494

$$$$
[H]c1c([H])c([H])c(C2([H])C([H])([H])[C@]2([H])N([H])C([H])([H])c2c([H])c([H])c(OC([H])([H])[H])c3c([H])c([H])c([H])c([H])c23)c([H])c1[H]


 24 27  0  0  0  0  0  0  0  0999 V2000
   34.2245  -20.2260   37.4358 C   0  0  0  0  0  0  0  0  0  0  0  0
   35.4271  -19.8872   38.0042 C   0  0  0  0  0  0  0  0  0  0  0  0
   36.2004  -18.8384   37.5264 C   0  0  0  0  0  0  0  0  0  0  0  0
   35.7802  -18.0912   36.4490 C   0  0  0  0  0  0  0  0  0  0  0  0
   34.5579  -18.4292   35.8649 C   0  0  0  0  0  0  0  0  0  0  0  0
   34.1456  -17.6743   34.7861 C   0  0  0  0  0  0  0  0  0  0  0  0
   32.9307  -18.0224   34.2180 C   0  0  0  0  0  0  0  0  0  0  0  0
   32.1646  -19.0591   34.6891 C   0  0  0  0  0  0  0  0  0  0  0  0
   32.5890  -19.8044   35.7675 C   0  0  0  0  0  0  0  0  0  0  0  0
   33.8115  -19.4711   36.3562 C   0  0  0  0  0  0  0  0  0  0  0  0
   33.6444  -21.7555   39.2462 C   0  0  0  0  0  0  0  0  0  0  0  0
   33.4505  -21.2848   37.9233 O   0  0  0  0  0  0  0  0  0  0  0  0
   36.5781  -16.9549   35.9154 C   0  0  0  0  0  0  0  0  0  0  0  0
   37.2709  -16.3227   36.9945 N   0  0  0  0  0  0  0  0  0  0  0  0
   38.2801  -16.1273   36.7784 H   0  0  0  0  0  0  0  0  0  0  0  0
   36.6028  -15.1648   37.5228 C   0  0  0  0  0  0  0  0  0  0  0  0
   37.5024  -13.9242   37.5708 C   0  0  0  0  0  0  0  0  0  0  0  0
   36.2873  -13.9706   36.7222 C   0  0  0  0  0  0  0  0  0  0  0  0
   35.0959  -13.1864   37.1242 C   0  0  0  0  0  0  0  0  0  0  0  0
   34.9542  -11.8373   36.8952 C   0  0  0  0  0  0  0  0  0  0  0  0
   33.8442  -11.1356   37.2761 C   0  0  0  0  0  0  0  0  0  0  0  0
   32.8154  -11.7712   37.9124 C   0  0  0  0  0  0  0  0  0  0  0  0
   32.9270  -13.1231   38.1565 C   0  0  0  0  0  0  0  0  0  0  0  0
   34.0568  -13.8186   37.7647 C   0  0  0  0  0  0  0  0  0  0  0  0
 11 12  1  0  0  0
 12  1  1  0  0  0
  1  2  2  0  0  0
  2  3  1  0  0  0
  3  4  2  0  0  0
  4 13  1  0  0  0
 13 14  1  0  0  0
 14 16  1  0  0  0
 16 17  1  0  0  0
 17 18  1  0  0  0
 18 19  1  0  0  0
 19 20  2  0  0  0
 20 21  1  0  0  0
 21 22  2  0  0  0
 22 23  1  0  0  0
 23 24  2  0  0  0
  4  5  1  0  0  0
  5  6  2  0  0  0
  6  7  1  0  0  0
  7  8  2  0  0  0
  8  9  1  0  0  0
  9 10  2  0  0  0
 10  1  1  0  0  0
 18 16  1  0  0  0
 24 19  1  0  0  0
 10  5  1  0  0  0
 14 15  1  0  0  0
M  END
> <minimizedAffinity>
-7.64938

> <CNNscore>
0.5093658566

> <CNNaffinity>
4.8205957413

> <CNN_VS>
2.4554469585

> <CNNaffinity_variance>
0.3673360348

$$$$
[H]c1c([H])c([H])c(C2([H])C([H])([H])[C@]2([H])N([H])C([H])([H])c2c([H])c([H])c(OC([H])([H])[H])c3c([H])c([H])c([H])c([H])c23)c([H])c1[H]


 24 27  0  0  0  0  0  0  0  0999 V2000
   32.4125  -21.7997   37.1757 C   0  0  0  0  0  0  0  0  0  0  0  0
   33.7695  -21.6162   37.0808 C   0  0  0  0  0  0  0  0  0  0  0  0
   34.3309  -20.6968   36.2057 C   0  0  0  0  0  0  0  0  0  0  0  0
   33.5326  -19.9262   35.3905 C   0  0  0  0  0  0  0  0  0  0  0  0
   32.1511  -20.1066   35.4809 C   0  0  0  0  0  0  0  0  0  0  0  0
   31.3597  -19.3296   34.6601 C   0  0  0  0  0  0  0  0  0  0  0  0
   29.9912  -19.5206   34.7618 C   0  0  0  0  0  0  0  0  0  0  0  0
   29.4340  -20.4291   35.6266 C   0  0  0  0  0  0  0  0  0  0  0  0
   30.2368  -21.1984   36.4405 C   0  0  0  0  0  0  0  0  0  0  0  0
   31.6202  -21.0225   36.3546 C   0  0  0  0  0  0  0  0  0  0  0  0
   32.4540  -22.9546   39.3246 C   0  0  0  0  0  0  0  0  0  0  0  0
   31.8540  -22.7286   38.0605 O   0  0  0  0  0  0  0  0  0  0  0  0
   34.0985  -18.9251   34.4471 C   0  0  0  0  0  0  0  0  0  0  0  0
   35.2706  -18.3468   35.0268 N   0  0  0  0  0  0  0  0  0  0  0  0
   36.0156  -18.1283   34.3194 H   0  0  0  0  0  0  0  0  0  0  0  0
   35.0077  -17.2280   35.8902 C   0  0  0  0  0  0  0  0  0  0  0  0
   36.0416  -17.0820   37.0128 C   0  0  0  0  0  0  0  0  0  0  0  0
   35.8737  -16.0405   35.9709 C   0  0  0  0  0  0  0  0  0  0  0  0
   35.2249  -14.7576   36.3306 C   0  0  0  0  0  0  0  0  0  0  0  0
   33.8690  -14.6089   36.5089 C   0  0  0  0  0  0  0  0  0  0  0  0
   33.2940  -13.4137   36.8410 C   0  0  0  0  0  0  0  0  0  0  0  0
   34.0704  -12.3020   37.0100 C   0  0  0  0  0  0  0  0  0  0  0  0
   35.4330  -12.4183   36.8383 C   0  0  0  0  0  0  0  0  0  0  0  0
   35.9992  -13.6349   36.5024 C   0  0  0  0  0  0  0  0  0  0  0  0
 11 12  1  0  0  0
 12  1  1  0  0  0
  1  2  2  0  0  0
  2  3  1  0  0  0
  3  4  2  0  0  0
  4 13  1  0  0  0
 13 14  1  0  0  0
 14 16  1  0  0  0
 16 17  1  0  0  0
 17 18  1  0  0  0
 18 19  1  0  0  0
 19 20  2  0  0  0
 20 21  1  0  0  0
 21 22  2  0  0  0
 22 23  1  0  0  0
 23 24  2  0  0  0
  4  5  1  0  0  0
  5  6  2  0  0  0
  6  7  1  0  0  0
  7  8  2  0  0  0
  8  9  1  0  0  0
  9 10  2  0  0  0
 10  1  1  0  0  0
 18 16  1  0  0  0
 24 19  1  0  0  0
 10  5  1  0  0  0
 14 15  1  0  0  0
M  END
> <minimizedAffinity>
-6.62336

> <CNNscore>
0.5046144724

> <CNNaffinity>
4.4209728241

> <CNN_VS>
2.2308869362

> <CNNaffinity_variance>
0.7156680822

$$$$
[H]c1c([H])c([H])c(C2([H])C([H])([H])[C@]2([H])N([H])C([H])([H])c2c([H])c([H])c(OC([H])([H])[H])c3c([H])c([H])c([H])c([H])c23)c([H])c1[H]


 24 27  0  0  0  0  0  0  0  0999 V2000
   43.1326  -18.0524   36.7075 C   0  0  0  0  0  0  0  0  0  0  0  0
   42.5040  -18.1393   35.4905 C   0  0  0  0  0  0  0  0  0  0  0  0
   41.3080  -18.8237   35.3242 C   0  0  0  0  0  0  0  0  0  0  0  0
   40.7032  -19.4485   36.3915 C   0  0  0  0  0  0  0  0  0  0  0  0
   41.3361  -19.3650   37.6332 C   0  0  0  0  0  0  0  0  0  0  0  0
   40.7218  -19.9942   38.6965 C   0  0  0  0  0  0  0  0  0  0  0  0
   41.3625  -19.9019   39.9216 C   0  0  0  0  0  0  0  0  0  0  0  0
   42.5450  -19.2254   40.0881 C   0  0  0  0  0  0  0  0  0  0  0  0
   43.1470  -18.6018   39.0171 C   0  0  0  0  0  0  0  0  0  0  0  0
   42.5185  -18.6819   37.7718 C   0  0  0  0  0  0  0  0  0  0  0  0
   44.6128  -16.2199   36.0718 C   0  0  0  0  0  0  0  0  0  0  0  0
   44.3382  -17.3605   36.8673 O   0  0  0  0  0  0  0  0  0  0  0  0
   39.4174  -20.1835   36.2526 C   0  0  0  0  0  0  0  0  0  0  0  0
   38.8770  -19.9383   34.9518 N   0  0  0  0  0  0  0  0  0  0  0  0
   38.7694  -20.8118   34.3786 H   0  0  0  0  0  0  0  0  0  0  0  0
   37.6759  -19.1486   34.9545 C   0  0  0  0  0  0  0  0  0  0  0  0
   37.6782  -18.0514   33.8837 C   0  0  0  0  0  0  0  0  0  0  0  0
   36.6922  -19.1586   33.8595 C   0  0  0  0  0  0  0  0  0  0  0  0
   35.2823  -18.8775   34.2188 C   0  0  0  0  0  0  0  0  0  0  0  0
   34.2215  -19.6607   33.8269 C   0  0  0  0  0  0  0  0  0  0  0  0
   32.9285  -19.3801   34.1717 C   0  0  0  0  0  0  0  0  0  0  0  0
   32.6446  -18.2838   34.9364 C   0  0  0  0  0  0  0  0  0  0  0  0
   33.6860  -17.4788   35.3453 C   0  0  0  0  0  0  0  0  0  0  0  0
   34.9887  -17.7766   34.9880 C   0  0  0  0  0  0  0  0  0  0  0  0
 11 12  1  0  0  0
 12  1  1  0  0  0
  1  2  2  0  0  0
  2  3  1  0  0  0
  3  4  2  0  0  0
  4 13  1  0  0  0
 13 14  1  0  0  0
 14 16  1  0  0  0
 16 17  1  0  0  0
 17 18  1  0  0  0
 18 19  1  0  0  0
 19 20  2  0  0  0
 20 21  1  0  0  0
 21 22  2  0  0  0
 22 23  1  0  0  0
 23 24  2  0  0  0
  4  5  1  0  0  0
  5  6  2  0  0  0
  6  7  1  0  0  0
  7  8  2  0  0  0
  8  9  1  0  0  0
  9 10  2  0  0  0
 10  1  1  0  0  0
 18 16  1  0  0  0
 24 19  1  0  0  0
 10  5  1  0  0  0
 14 15  1  0  0  0
M  END
> <minimizedAffinity>
-5.65771

> <CNNscore>
0.5031355619

> <CNNaffinity>
4.1196680069

> <CNN_VS>
2.0727515221

> <CNNaffinity_variance>
0.4037843347

$$$$
[H]c1nc([H])c([C@@]2([H])N(C([H])([H])[H])C([H])([H])C([H])([H])C2([H])[H])c([H])c1[H]


 12 13  0  0  0  0  0  0  0  0999 V2000
   35.2272  -18.9404   37.0199 C   0  0  0  0  0  0  0  0  0  0  0  0
   35.3856  -17.9388   36.0597 N   0  0  0  0  0  0  0  0  0  0  0  0
   36.6700  -17.4199   35.8100 C   0  0  0  0  0  0  0  0  0  0  0  0
   36.8760  -17.6857   34.3326 C   0  0  0  0  0  0  0  0  0  0  0  0
   35.6423  -18.4670   33.8647 C   0  0  0  0  0  0  0  0  0  0  0  0
   34.6142  -17.9727   34.8848 C   0  0  0  0  0  0  0  0  0  0  0  0
   33.4014  -18.7697   34.8828 C   0  0  0  0  0  0  0  0  0  0  0  0
   33.3401  -19.9411   34.1594 C   0  0  0  0  0  0  0  0  0  0  0  0
   32.1701  -20.7150   34.1506 C   0  0  0  0  0  0  0  0  0  0  0  0
   31.0854  -20.2802   34.8791 C   0  0  0  0  0  0  0  0  0  0  0  0
   31.1708  -19.1522   35.5648 N   0  0  0  0  0  0  0  0  0  0  0  0
   32.2825  -18.3942   35.5877 C   0  0  0  0  0  0  0  0  0  0  0  0
  1  2  1  0  0  0
  2  3  1  0  0  0
  3  4  1  0  0  0
  4  5  1  0  0  0
  5  6  1  0  0  0
  6  7  1  0  0  0
  7  8  2  0  0  0
  8  9  1  0  0  0
  9 10  2  0  0  0
 10 11  1  0  0  0
 11 12  2  0  0  0
  6  2  1  0  0  0
 12  7  1  0  0  0
M  END
> <minimizedAffinity>
-4.28488

> <CNNscore>
0.8354210854

> <CNNaffinity>
3.6968092918

> <CNN_VS>
3.0883924961

> <CNNaffinity_variance>
0.4613043666

$$$$
[H]c1nc([H])c([C@@]2([H])N(C([H])([H])[H])C([H])([H])C([H])([H])C2([H])[H])c([H])c1[H]


 12 13  0  0  0  0  0  0  0  0999 V2000
   32.7485  -22.2121   36.2474 C   0  0  0  0  0  0  0  0  0  0  0  0
   31.7020  -22.1053   35.3289 N   0  0  0  0  0  0  0  0  0  0  0  0
   30.5174  -22.8341   35.5453 C   0  0  0  0  0  0  0  0  0  0  0  0
   29.4486  -21.7614   35.5978 C   0  0  0  0  0  0  0  0  0  0  0  0
   30.1854  -20.4210   35.4899 C   0  0  0  0  0  0  0  0  0  0  0  0
   31.4322  -20.8660   34.7222 C   0  0  0  0  0  0  0  0  0  0  0  0
   32.4765  -19.8583   34.7258 C   0  0  0  0  0  0  0  0  0  0  0  0
   33.5685  -19.9853   33.8946 C   0  0  0  0  0  0  0  0  0  0  0  0
   34.5830  -19.0165   33.8949 C   0  0  0  0  0  0  0  0  0  0  0  0
   34.4653  -17.9373   34.7421 C   0  0  0  0  0  0  0  0  0  0  0  0
   33.4069  -17.8396   35.5297 N   0  0  0  0  0  0  0  0  0  0  0  0
   32.4221  -18.7565   35.5461 C   0  0  0  0  0  0  0  0  0  0  0  0
  1  2  1  0  0  0
  2  3  1  0  0  0
  3  4  1  0  0  0
  4  5  1  0  0  0
  5  6  1  0  0  0
  6  7  1  0  0  0
  7  8  2  0  0  0
  8  9  1  0  0  0
  9 10  2  0  0  0
 10 11  1  0  0  0
 11 12  2  0  0  0
  6  2  1  0  0  0
 12  7  1  0  0  0
M  END
> <minimizedAffinity>
-3.67667

> <CNNscore>
0.8197382092

> <CNNaffinity>
3.4511044025

> <CNN_VS>
2.8290021420

> <CNNaffinity_variance>
0.4333663583

$$$$
[H]c1nc([H])c([C@@]2([H])N(C([H])([H])[H])C([H])([H])C([H])([H])C2([H])[H])c([H])c1[H]


 12 13  0  0  0  0  0  0  0  0999 V2000
   33.9970  -21.5758   37.0857 C   0  0  0  0  0  0  0  0  0  0  0  0
   33.6717  -22.7348   36.3778 N   0  0  0  0  0  0  0  0  0  0  0  0
   34.0448  -23.9882   36.8983 C   0  0  0  0  0  0  0  0  0  0  0  0
   32.7254  -24.7213   37.0310 C   0  0  0  0  0  0  0  0  0  0  0  0
   31.6382  -23.7162   36.6320 C   0  0  0  0  0  0  0  0  0  0  0  0
   32.4445  -22.8126   35.6963 C   0  0  0  0  0  0  0  0  0  0  0  0
   31.7524  -21.5755   35.3853 C   0  0  0  0  0  0  0  0  0  0  0  0
   32.1762  -20.7857   34.3384 C   0  0  0  0  0  0  0  0  0  0  0  0
   31.5137  -19.5873   34.0339 C   0  0  0  0  0  0  0  0  0  0  0  0
   30.4325  -19.2169   34.8020 C   0  0  0  0  0  0  0  0  0  0  0  0
   30.0464  -19.9933   35.8011 N   0  0  0  0  0  0  0  0  0  0  0  0
   30.6666  -21.1466   36.1111 C   0  0  0  0  0  0  0  0  0  0  0  0
  1  2  1  0  0  0
  2  3  1  0  0  0
  3  4  1  0  0  0
  4  5  1  0  0  0
  5  6  1  0  0  0
  6  7  1  0  0  0
  7  8  2  0  0  0
  8  9  1  0  0  0
  9 10  2  0  0  0
 10 11  1  0  0  0
 11 12  2  0  0  0
  6  2  1  0  0  0
 12  7  1  0  0  0
M  END
> <minimizedAffinity>
-3.21198

> <CNNscore>
0.7751014233

> <CNNaffinity>
3.1956722736

> <CNN_VS>
2.4769701958

> <CNNaffinity_variance>
0.3231769502

$$$$
[H]c1nc([H])c([C@@]2([H])N(C([H])([H])[H])C([H])([H])C([H])([H])C2([H])[H])c([H])c1[H]


 12 13  0  0  0  0  0  0  0  0999 V2000
   33.8913  -19.8963   36.7557 C   0  0  0  0  0  0  0  0  0  0  0  0
   33.7646  -20.0293   35.3713 N   0  0  0  0  0  0  0  0  0  0  0  0
   32.8089  -20.9208   34.8489 C   0  0  0  0  0  0  0  0  0  0  0  0
   31.9330  -20.0334   33.9880 C   0  0  0  0  0  0  0  0  0  0  0  0
   32.4515  -18.6039   34.1851 C   0  0  0  0  0  0  0  0  0  0  0  0
   33.9087  -18.8991   34.5475 C   0  0  0  0  0  0  0  0  0  0  0  0
   34.5934  -17.7391   35.0874 C   0  0  0  0  0  0  0  0  0  0  0  0
   33.8729  -16.6605   35.5532 C   0  0  0  0  0  0  0  0  0  0  0  0
   34.5283  -15.5347   36.0738 C   0  0  0  0  0  0  0  0  0  0  0  0
   35.9048  -15.5298   36.1096 C   0  0  0  0  0  0  0  0  0  0  0  0
   36.5723  -16.5781   35.6561 N   0  0  0  0  0  0  0  0  0  0  0  0
   35.9647  -17.6682   35.1527 C   0  0  0  0  0  0  0  0  0  0  0  0
  1  2  1  0  0  0
  2  3  1  0  0  0
  3  4  1  0  0  0
  4  5  1  0  0  0
  5  6  1  0  0  0
  6  7  1  0  0  0
  7  8  2  0  0  0
  8  9  1  0  0  0
  9 10  2  0  0  0
 10 11  1  0  0  0
 11 12  2  0  0  0
  6  2  1  0  0  0
 12  7  1  0  0  0
M  END
> <minimizedAffinity>
-4.15293

> <CNNscore>
0.7481614351

> <CNNaffinity>
3.6032798290

> <CNN_VS>
2.6958351135

> <CNNaffinity_variance>
0.4353592992

$$$$
[H]c1nc([H])c([C@@]2([H])N(C([H])([H])[H])C([H])([H])C([H])([H])C2([H])[H])c([H])c1[H]


 12 13  0  0  0  0  0  0  0  0999 V2000
   32.9104  -20.4669   36.8273 C   0  0  0  0  0  0  0  0  0  0  0  0
   32.3341  -19.4177   36.1080 N   0  0  0  0  0  0  0  0  0  0  0  0
   33.1531  -18.3774   35.6305 C   0  0  0  0  0  0  0  0  0  0  0  0
   32.9184  -18.4030   34.1339 C   0  0  0  0  0  0  0  0  0  0  0  0
   31.9934  -19.5968   33.8686 C   0  0  0  0  0  0  0  0  0  0  0  0
   31.2776  -19.6813   35.2187 C   0  0  0  0  0  0  0  0  0  0  0  0
   30.5380  -20.9195   35.3793 C   0  0  0  0  0  0  0  0  0  0  0  0
   29.2752  -20.9089   35.9310 C   0  0  0  0  0  0  0  0  0  0  0  0
   28.5557  -22.1024   36.0919 C   0  0  0  0  0  0  0  0  0  0  0  0
   29.1370  -23.2834   35.6875 C   0  0  0  0  0  0  0  0  0  0  0  0
   30.3504  -23.2657   35.1609 N   0  0  0  0  0  0  0  0  0  0  0  0
   31.0586  -22.1331   34.9972 C   0  0  0  0  0  0  0  0  0  0  0  0
  1  2  1  0  0  0
  2  3  1  0  0  0
  3  4  1  0  0  0
  4  5  1  0  0  0
  5  6  1  0  0  0
  6  7  1  0  0  0
  7  8  2  0  0  0
  8  9  1  0  0  0
  9 10  2  0  0  0
 10 11  1  0  0  0
 11 12  2  0  0  0
  6  2  1  0  0  0
 12  7  1  0  0  0
M  END
> <minimizedAffinity>
-3.98101

> <CNNscore>
0.7437906265

> <CNNaffinity>
3.3647389412

> <CNN_VS>
2.5026612282

> <CNNaffinity_variance>
0.5065951347

$$$$
[H]c1nc([H])c([C@@]2([H])N(C([H])([H])[H])C([H])([H])C([H])([H])C2([H])[H])c([H])c1[H]


 12 13  0  0  0  0  0  0  0  0999 V2000
   34.6049  -19.3110   33.6578 C   0  0  0  0  0  0  0  0  0  0  0  0
   33.3320  -19.0971   34.1908 N   0  0  0  0  0  0  0  0  0  0  0  0
   32.3111  -20.0316   33.9343 C   0  0  0  0  0  0  0  0  0  0  0  0
   31.8852  -20.4767   35.3186 C   0  0  0  0  0  0  0  0  0  0  0  0
   32.8299  -19.7740   36.3010 C   0  0  0  0  0  0  0  0  0  0  0  0
   33.1997  -18.5400   35.4748 C   0  0  0  0  0  0  0  0  0  0  0  0
   34.3298  -17.8178   36.0294 C   0  0  0  0  0  0  0  0  0  0  0  0
   35.2571  -18.4718   36.8115 C   0  0  0  0  0  0  0  0  0  0  0  0
   36.3504  -17.7794   37.3531 C   0  0  0  0  0  0  0  0  0  0  0  0
   36.4773  -16.4343   37.0873 C   0  0  0  0  0  0  0  0  0  0  0  0
   35.5731  -15.8307   36.3336 N   0  0  0  0  0  0  0  0  0  0  0  0
   34.5169  -16.4747   35.8038 C   0  0  0  0  0  0  0  0  0  0  0  0
  1  2  1  0  0  0
  2  3  1  0  0  0
  3  4  1  0  0  0
  4  5  1  0  0  0
  5  6  1  0  0  0
  6  7  1  0  0  0
  7  8  2  0  0  0
  8  9  1  0  0  0
  9 10  2  0  0  0
 10 11  1  0  0  0
 11 12  2  0  0  0
  6  2  1  0  0  0
 12  7  1  0  0  0
M  END
> <minimizedAffinity>
-3.70386

> <CNNscore>
0.7362568974

> <CNNaffinity>
3.5622506142

> <CNN_VS>
2.6227316856

> <CNNaffinity_variance>
0.3310710788

$$$$
[H]c1nc([H])c([C@@]2([H])N(C([H])([H])[H])C([H])([H])C([H])([H])C2([H])[H])c([H])c1[H]


 12 13  0  0  0  0  0  0  0  0999 V2000
   36.7566  -17.4881   34.5415 C   0  0  0  0  0  0  0  0  0  0  0  0
   35.7130  -18.0039   35.3129 N   0  0  0  0  0  0  0  0  0  0  0  0
   35.5554  -19.3988   35.4152 C   0  0  0  0  0  0  0  0  0  0  0  0
   35.6485  -19.6555   36.9056 C   0  0  0  0  0  0  0  0  0  0  0  0
   35.9633  -18.3010   37.5517 C   0  0  0  0  0  0  0  0  0  0  0  0
   35.3497  -17.3626   36.5101 C   0  0  0  0  0  0  0  0  0  0  0  0
   35.7540  -15.9817   36.6991 C   0  0  0  0  0  0  0  0  0  0  0  0
   36.8566  -15.6789   37.4685 C   0  0  0  0  0  0  0  0  0  0  0  0
   37.2515  -14.3461   37.6577 C   0  0  0  0  0  0  0  0  0  0  0  0
   36.5153  -13.3480   37.0594 C   0  0  0  0  0  0  0  0  0  0  0  0
   35.4613  -13.6660   36.3259 N   0  0  0  0  0  0  0  0  0  0  0  0
   35.0644  -14.9370   36.1309 C   0  0  0  0  0  0  0  0  0  0  0  0
  1  2  1  0  0  0
  2  3  1  0  0  0
  3  4  1  0  0  0
  4  5  1  0  0  0
  5  6  1  0  0  0
  6  7  1  0  0  0
  7  8  2  0  0  0
  8  9  1  0  0  0
  9 10  2  0  0  0
 10 11  1  0  0  0
 11 12  2  0  0  0
  6  2  1  0  0  0
 12  7  1  0  0  0
M  END
> <minimizedAffinity>
-4.68821

> <CNNscore>
0.6896247268

> <CNNaffinity>
3.6474487782

> <CNN_VS>
2.5153708458

> <CNNaffinity_variance>
0.4514397681

$$$$
[H]c1nc([H])c([C@@]2([H])N(C([H])([H])[H])C([H])([H])C([H])([H])C2([H])[H])c([H])c1[H]


 12 13  0  0  0  0  0  0  0  0999 V2000
   35.9434  -18.6722   37.5455 C   0  0  0  0  0  0  0  0  0  0  0  0
   36.7764  -18.4982   36.4381 N   0  0  0  0  0  0  0  0  0  0  0  0
   37.0810  -19.6051   35.6238 C   0  0  0  0  0  0  0  0  0  0  0  0
   36.5935  -19.1793   34.2539 C   0  0  0  0  0  0  0  0  0  0  0  0
   35.9277  -17.8114   34.4454 C   0  0  0  0  0  0  0  0  0  0  0  0
   36.6875  -17.3183   35.6789 C   0  0  0  0  0  0  0  0  0  0  0  0
   36.0663  -16.1561   36.2868 C   0  0  0  0  0  0  0  0  0  0  0  0
   36.7844  -15.3536   37.1469 C   0  0  0  0  0  0  0  0  0  0  0  0
   36.1894  -14.2303   37.7403 C   0  0  0  0  0  0  0  0  0  0  0  0
   34.8744  -13.9467   37.4459 C   0  0  0  0  0  0  0  0  0  0  0  0
   34.2079  -14.7333   36.6170 N   0  0  0  0  0  0  0  0  0  0  0  0
   34.7582  -15.8155   36.0366 C   0  0  0  0  0  0  0  0  0  0  0  0
  1  2  1  0  0  0
  2  3  1  0  0  0
  3  4  1  0  0  0
  4  5  1  0  0  0
  5  6  1  0  0  0
  6  7  1  0  0  0
  7  8  2  0  0  0
  8  9  1  0  0  0
  9 10  2  0  0  0
 10 11  1  0  0  0
 11 12  2  0  0  0
  6  2  1  0  0  0
 12  7  1  0  0  0
M  END
> <minimizedAffinity>
-4.58541

> <CNNscore>
0.6701648831

> <CNNaffinity>
3.4907035828

> <CNN_VS>
2.3393468857

> <CNNaffinity_variance>
0.4846154153

$$$$
[H]c1nc([H])c([C@@]2([H])N(C([H])([H])[H])C([H])([H])C([H])([H])C2([H])[H])c([H])c1[H]


 12 13  0  0  0  0  0  0  0  0999 V2000
   29.7269  -23.5847   35.2071 C   0  0  0  0  0  0  0  0  0  0  0  0
   28.5602  -22.8920   35.5376 N   0  0  0  0  0  0  0  0  0  0  0  0
   27.4600  -23.6016   36.0545 C   0  0  0  0  0  0  0  0  0  0  0  0
   27.2157  -22.9432   37.3972 C   0  0  0  0  0  0  0  0  0  0  0  0
   28.3333  -21.9082   37.5732 C   0  0  0  0  0  0  0  0  0  0  0  0
   28.6498  -21.6093   36.1061 C   0  0  0  0  0  0  0  0  0  0  0  0
   29.8890  -20.8716   35.9438 C   0  0  0  0  0  0  0  0  0  0  0  0
   29.9650  -19.8282   35.0467 C   0  0  0  0  0  0  0  0  0  0  0  0
   31.1605  -19.1127   34.8827 C   0  0  0  0  0  0  0  0  0  0  0  0
   32.2551  -19.4744   35.6357 C   0  0  0  0  0  0  0  0  0  0  0  0
   32.1552  -20.4798   36.4897 N   0  0  0  0  0  0  0  0  0  0  0  0
   31.0191  -21.1798   36.6634 C   0  0  0  0  0  0  0  0  0  0  0  0
  1  2  1  0  0  0
  2  3  1  0  0  0
  3  4  1  0  0  0
  4  5  1  0  0  0
  5  6  1  0  0  0
  6  7  1  0  0  0
  7  8  2  0  0  0
  8  9  1  0  0  0
  9 10  2  0  0  0
 10 11  1  0  0  0
 11 12  2  0  0  0
  6  2  1  0  0  0
 12  7  1  0  0  0
M  END
> <minimizedAffinity>
-3.56483

> <CNNscore>
0.6689128280

> <CNNaffinity>
3.1348826885

> <CNN_VS>
2.0969631672

> <CNNaffinity_variance>
0.3933199048

$$$$
[H]c1nc([H])c(N([H])C(=O)c2nc(-c3c(F)c([H])c([H])c([H])c3F)c([H])c([H])c2F)c([C@@]2([H])C([H])([H])[C@@]([H])(N([H])[H])C([H])([H])[C@@]([H])(C([H])([H])[H])C2([H])[H])c1[H]


 35 38  0  0  0  0  0  0  0  0999 V2000
   33.6078  -17.9170   35.0780 N   0  0  0  0  0  0  0  0  0  0  0  0
   33.3248  -19.0198   35.8901 C   0  0  0  0  0  0  0  0  0  0  0  0
   33.7874  -19.0405   37.1030 O   0  0  0  0  0  0  0  0  0  0  0  0
   33.2193  -17.9099   34.1075 H   0  0  0  0  0  0  0  0  0  0  0  0
   32.5406  -20.2003   35.5664 C   0  0  0  0  0  0  0  0  0  0  0  0
   31.6005  -20.6222   36.4314 N   0  0  0  0  0  0  0  0  0  0  0  0
   30.7952  -21.6774   36.2933 C   0  0  0  0  0  0  0  0  0  0  0  0
   30.9584  -22.4256   35.1180 C   0  0  0  0  0  0  0  0  0  0  0  0
   31.9042  -22.0567   34.1839 C   0  0  0  0  0  0  0  0  0  0  0  0
   32.6879  -20.9339   34.4320 C   0  0  0  0  0  0  0  0  0  0  0  0
   33.6281  -20.6010   33.4686 F   0  0  0  0  0  0  0  0  0  0  0  0
   29.7606  -22.0585   37.2305 C   0  0  0  0  0  0  0  0  0  0  0  0
   29.9324  -23.1058   38.1239 C   0  0  0  0  0  0  0  0  0  0  0  0
   31.0847  -23.8403   38.1149 F   0  0  0  0  0  0  0  0  0  0  0  0
   28.9790  -23.4716   39.0448 C   0  0  0  0  0  0  0  0  0  0  0  0
   27.7950  -22.7977   39.1169 C   0  0  0  0  0  0  0  0  0  0  0  0
   27.5876  -21.7392   38.2307 C   0  0  0  0  0  0  0  0  0  0  0  0
   28.5622  -21.3968   37.3186 C   0  0  0  0  0  0  0  0  0  0  0  0
   28.3644  -20.3543   36.4428 F   0  0  0  0  0  0  0  0  0  0  0  0
   35.7557  -16.9513   35.3291 C   0  0  0  0  0  0  0  0  0  0  0  0
   36.4995  -15.8335   35.7235 C   0  0  0  0  0  0  0  0  0  0  0  0
   35.9137  -14.7214   36.3045 C   0  0  0  0  0  0  0  0  0  0  0  0
   34.6041  -14.6774   36.5104 N   0  0  0  0  0  0  0  0  0  0  0  0
   33.8608  -15.7435   36.1358 C   0  0  0  0  0  0  0  0  0  0  0  0
   34.3861  -16.8475   35.5605 C   0  0  0  0  0  0  0  0  0  0  0  0
   38.5380  -20.1195   37.4652 C   0  0  0  0  0  0  0  0  0  0  0  0
   37.7347  -20.0032   36.1241 C   0  0  0  0  0  0  0  0  0  0  0  0
   38.7797  -19.9403   35.0060 C   0  0  0  0  0  0  0  0  0  0  0  0
   38.0905  -19.5160   33.7664 C   0  0  0  0  0  0  0  0  0  0  0  0
   38.9288  -19.5665   32.6236 N   0  0  0  0  0  0  0  0  0  0  0  0
   37.5077  -18.0851   33.9210 C   0  0  0  0  0  0  0  0  0  0  0  0
   36.3398  -18.1984   34.8959 C   0  0  0  0  0  0  0  0  0  0  0  0
   37.0487  -18.7079   36.2153 C   0  0  0  0  0  0  0  0  0  0  0  0
   38.4426  -19.2951   31.7281 H   0  0  0  0  0  0  0  0  0  0  0  0
   39.5346  -20.3886   32.5119 H   0  0  0  0  0  0  0  0  0  0  0  0
 26 27  1  0  0  0
 27 28  1  0  0  0
 28 29  1  0  0  0
 29 30  1  0  0  0
 29 31  1  0  0  0
 31 32  1  0  0  0
 32 20  1  0  0  0
 20 21  2  0  0  0
 21 22  1  0  0  0
 22 23  2  0  0  0
 23 24  1  0  0  0
 24 25  2  0  0  0
 25  1  1  0  0  0
  1  2  1  0  0  0
  2  3  2  0  0  0
  2  5  1  0  0  0
  5  6  2  0  0  0
  6  7  1  0  0  0
  7 12  1  0  0  0
 12 13  2  0  0  0
 13 14  1  0  0  0
 13 15  1  0  0  0
 15 16  2  0  0  0
 16 17  1  0  0  0
 17 18  2  0  0  0
 18 19  1  0  0  0
  7  8  2  0  0  0
  8  9  1  0  0  0
  9 10  2  0  0  0
 10 11  1  0  0  0
 32 33  1  0  0  0
 33 27  1  0  0  0
 25 20  1  0  0  0
 10  5  1  0  0  0
 18 12  1  0  0  0
 30 34  1  0  0  0
 30 35  1  0  0  0
  1  4  1  0  0  0
M  END
> <minimizedAffinity>
-7.62862

> <CNNscore>
0.6322594285

> <CNNaffinity>
6.4623198509

> <CNN_VS>
4.0858626366

> <CNNaffinity_variance>
0.0758766830

$$$$
[H]c1nc([H])c(N([H])C(=O)c2nc(-c3c(F)c([H])c([H])c([H])c3F)c([H])c([H])c2F)c([C@@]2([H])C([H])([H])[C@@]([H])(N([H])[H])C([H])([H])[C@@]([H])(C([H])([H])[H])C2([H])[H])c1[H]


 35 38  0  0  0  0  0  0  0  0999 V2000
   34.1213  -21.5105   36.5792 N   0  0  0  0  0  0  0  0  0  0  0  0
   34.5955  -21.4040   37.8905 C   0  0  0  0  0  0  0  0  0  0  0  0
   34.0623  -20.5222   38.6803 O   0  0  0  0  0  0  0  0  0  0  0  0
   34.5532  -22.2325   35.9586 H   0  0  0  0  0  0  0  0  0  0  0  0
   35.6406  -22.1803   38.5372 C   0  0  0  0  0  0  0  0  0  0  0  0
   36.7682  -21.5625   38.9335 N   0  0  0  0  0  0  0  0  0  0  0  0
   37.8198  -22.1178   39.5393 C   0  0  0  0  0  0  0  0  0  0  0  0
   37.7334  -23.4972   39.7792 C   0  0  0  0  0  0  0  0  0  0  0  0
   36.6092  -24.2005   39.3991 C   0  0  0  0  0  0  0  0  0  0  0  0
   35.5700  -23.5162   38.7761 C   0  0  0  0  0  0  0  0  0  0  0  0
   34.4607  -24.2623   38.4077 F   0  0  0  0  0  0  0  0  0  0  0  0
   38.9891  -21.3975   39.9951 C   0  0  0  0  0  0  0  0  0  0  0  0
   39.1953  -21.1117   41.3369 C   0  0  0  0  0  0  0  0  0  0  0  0
   38.2666  -21.4738   42.2717 F   0  0  0  0  0  0  0  0  0  0  0  0
   40.3102  -20.4550   41.8022 C   0  0  0  0  0  0  0  0  0  0  0  0
   41.2837  -20.0495   40.9367 C   0  0  0  0  0  0  0  0  0  0  0  0
   41.1074  -20.3188   39.5783 C   0  0  0  0  0  0  0  0  0  0  0  0
   39.9787  -20.9785   39.1425 C   0  0  0  0  0  0  0  0  0  0  0  0
   39.7991  -21.2476   37.8053 F   0  0  0  0  0  0  0  0  0  0  0  0
   33.4995  -19.5627   35.3840 C   0  0  0  0  0  0  0  0  0  0  0  0
   32.4565  -18.8006   34.8461 C   0  0  0  0  0  0  0  0  0  0  0  0
   31.1247  -19.1273   35.0386 C   0  0  0  0  0  0  0  0  0  0  0  0
   30.7867  -20.1931   35.7523 N   0  0  0  0  0  0  0  0  0  0  0  0
   31.7755  -20.9492   36.2815 C   0  0  0  0  0  0  0  0  0  0  0  0
   33.0879  -20.6738   36.1162 C   0  0  0  0  0  0  0  0  0  0  0  0
   35.7595  -15.7331   36.9865 C   0  0  0  0  0  0  0  0  0  0  0  0
   36.1354  -17.1320   36.3871 C   0  0  0  0  0  0  0  0  0  0  0  0
   36.7721  -16.8531   35.0221 C   0  0  0  0  0  0  0  0  0  0  0  0
   36.8524  -18.1372   34.2899 C   0  0  0  0  0  0  0  0  0  0  0  0
   37.5639  -18.0323   33.0677 N   0  0  0  0  0  0  0  0  0  0  0  0
   35.4338  -18.7075   34.0185 C   0  0  0  0  0  0  0  0  0  0  0  0
   34.8857  -19.1598   35.3684 C   0  0  0  0  0  0  0  0  0  0  0  0
   34.8465  -17.8072   36.1881 C   0  0  0  0  0  0  0  0  0  0  0  0
   37.6545  -18.9461   32.5493 H   0  0  0  0  0  0  0  0  0  0  0  0
   38.4358  -17.4890   33.0679 H   0  0  0  0  0  0  0  0  0  0  0  0
 26 27  1  0  0  0
 27 28  1  0  0  0
 28 29  1  0  0  0
 29 30  1  0  0  0
 29 31  1  0  0  0
 31 32  1  0  0  0
 32 20  1  0  0  0
 20 21  2  0  0  0
 21 22  1  0  0  0
 22 23  2  0  0  0
 23 24  1  0  0  0
 24 25  2  0  0  0
 25  1  1  0  0  0
  1  2  1  0  0  0
  2  3  2  0  0  0
  2  5  1  0  0  0
  5  6  2  0  0  0
  6  7  1  0  0  0
  7 12  1  0  0  0
 12 13  2  0  0  0
 13 14  1  0  0  0
 13 15  1  0  0  0
 15 16  2  0  0  0
 16 17  1  0  0  0
 17 18  2  0  0  0
 18 19  1  0  0  0
  7  8  2  0  0  0
  8  9  1  0  0  0
  9 10  2  0  0  0
 10 11  1  0  0  0
 32 33  1  0  0  0
 33 27  1  0  0  0
 25 20  1  0  0  0
 10  5  1  0  0  0
 18 12  1  0  0  0
 30 34  1  0  0  0
 30 35  1  0  0  0
  1  4  1  0  0  0
M  END
> <minimizedAffinity>
-6.49047

> <CNNscore>
0.3941182196

> <CNNaffinity>
5.9920215607

> <CNN_VS>
2.3615648746

> <CNNaffinity_variance>
0.2326533347

$$$$
[H]c1nc([H])c(N([H])C(=O)c2nc(-c3c(F)c([H])c([H])c([H])c3F)c([H])c([H])c2F)c([C@@]2([H])C([H])([H])[C@@]([H])(N([H])[H])C([H])([H])[C@@]([H])(C([H])([H])[H])C2([H])[H])c1[H]


 35 38  0  0  0  0  0  0  0  0999 V2000
   34.7921  -17.1451   34.8171 N   0  0  0  0  0  0  0  0  0  0  0  0
   34.4896  -16.2197   35.8211 C   0  0  0  0  0  0  0  0  0  0  0  0
   33.3380  -16.2943   36.4161 O   0  0  0  0  0  0  0  0  0  0  0  0
   35.7274  -17.0790   34.3548 H   0  0  0  0  0  0  0  0  0  0  0  0
   35.3183  -15.1400   36.3316 C   0  0  0  0  0  0  0  0  0  0  0  0
   34.8212  -13.8904   36.3668 N   0  0  0  0  0  0  0  0  0  0  0  0
   35.4388  -12.7904   36.8023 C   0  0  0  0  0  0  0  0  0  0  0  0
   36.7512  -12.9652   37.2661 C   0  0  0  0  0  0  0  0  0  0  0  0
   37.3308  -14.2169   37.2590 C   0  0  0  0  0  0  0  0  0  0  0  0
   36.5903  -15.2951   36.7841 C   0  0  0  0  0  0  0  0  0  0  0  0
   37.2126  -16.5343   36.7917 F   0  0  0  0  0  0  0  0  0  0  0  0
   34.8394  -11.4751   36.8696 C   0  0  0  0  0  0  0  0  0  0  0  0
   35.3095  -10.4170   36.1055 C   0  0  0  0  0  0  0  0  0  0  0  0
   36.3913  -10.5821   35.2870 F   0  0  0  0  0  0  0  0  0  0  0  0
   34.7421   -9.1646   36.1269 C   0  0  0  0  0  0  0  0  0  0  0  0
   33.6637   -8.9093   36.9225 C   0  0  0  0  0  0  0  0  0  0  0  0
   33.1658   -9.9512   37.7069 C   0  0  0  0  0  0  0  0  0  0  0  0
   33.7566  -11.1954   37.6640 C   0  0  0  0  0  0  0  0  0  0  0  0
   33.2705  -12.2268   38.4340 F   0  0  0  0  0  0  0  0  0  0  0  0
   34.3927  -19.4160   34.2761 C   0  0  0  0  0  0  0  0  0  0  0  0
   33.4421  -20.4083   34.0121 C   0  0  0  0  0  0  0  0  0  0  0  0
   32.0881  -20.1322   33.9236 C   0  0  0  0  0  0  0  0  0  0  0  0
   31.6384  -18.8953   34.0891 N   0  0  0  0  0  0  0  0  0  0  0  0
   32.5358  -17.9171   34.3483 C   0  0  0  0  0  0  0  0  0  0  0  0
   33.8648  -18.1387   34.4496 C   0  0  0  0  0  0  0  0  0  0  0  0
   37.7843  -19.8385   37.5410 C   0  0  0  0  0  0  0  0  0  0  0  0
   37.6455  -20.0068   35.9887 C   0  0  0  0  0  0  0  0  0  0  0  0
   38.4820  -18.8869   35.3625 C   0  0  0  0  0  0  0  0  0  0  0  0
   38.1320  -18.8101   33.9261 C   0  0  0  0  0  0  0  0  0  0  0  0
   38.9537  -17.9070   33.2050 N   0  0  0  0  0  0  0  0  0  0  0  0
   36.6410  -18.4173   33.7416 C   0  0  0  0  0  0  0  0  0  0  0  0
   35.8192  -19.6211   34.1921 C   0  0  0  0  0  0  0  0  0  0  0  0
   36.2244  -19.7565   35.7154 C   0  0  0  0  0  0  0  0  0  0  0  0
   38.7348  -17.8641   32.1743 H   0  0  0  0  0  0  0  0  0  0  0  0
   39.9631  -17.9241   33.3951 H   0  0  0  0  0  0  0  0  0  0  0  0
 26 27  1  0  0  0
 27 28  1  0  0  0
 28 29  1  0  0  0
 29 30  1  0  0  0
 29 31  1  0  0  0
 31 32  1  0  0  0
 32 20  1  0  0  0
 20 21  2  0  0  0
 21 22  1  0  0  0
 22 23  2  0  0  0
 23 24  1  0  0  0
 24 25  2  0  0  0
 25  1  1  0  0  0
  1  2  1  0  0  0
  2  3  2  0  0  0
  2  5  1  0  0  0
  5  6  2  0  0  0
  6  7  1  0  0  0
  7 12  1  0  0  0
 12 13  2  0  0  0
 13 14  1  0  0  0
 13 15  1  0  0  0
 15 16  2  0  0  0
 16 17  1  0  0  0
 17 18  2  0  0  0
 18 19  1  0  0  0
  7  8  2  0  0  0
  8  9  1  0  0  0
  9 10  2  0  0  0
 10 11  1  0  0  0
 32 33  1  0  0  0
 33 27  1  0  0  0
 25 20  1  0  0  0
 10  5  1  0  0  0
 18 12  1  0  0  0
 30 34  1  0  0  0
 30 35  1  0  0  0
  1  4  1  0  0  0
M  END
> <minimizedAffinity>
-8.04302

> <CNNscore>
0.3934674859

> <CNNaffinity>
6.7541427612

> <CNN_VS>
2.6575355530

> <CNNaffinity_variance>
0.1300611347

$$$$
[H]c1nc([H])c(N([H])C(=O)c2nc(-c3c(F)c([H])c([H])c([H])c3F)c([H])c([H])c2F)c([C@@]2([H])C([H])([H])[C@@]([H])(N([H])[H])C([H])([H])[C@@]([H])(C([H])([H])[H])C2([H])[H])c1[H]


 35 38  0  0  0  0  0  0  0  0999 V2000
   34.0651  -18.2170   35.0726 N   0  0  0  0  0  0  0  0  0  0  0  0
   33.8014  -19.2926   35.9265 C   0  0  0  0  0  0  0  0  0  0  0  0
   34.1323  -19.1953   37.1782 O   0  0  0  0  0  0  0  0  0  0  0  0
   33.7830  -18.3061   34.0699 H   0  0  0  0  0  0  0  0  0  0  0  0
   33.1696  -20.5626   35.6083 C   0  0  0  0  0  0  0  0  0  0  0  0
   33.2450  -21.5738   36.4925 N   0  0  0  0  0  0  0  0  0  0  0  0
   32.7250  -22.7961   36.3635 C   0  0  0  0  0  0  0  0  0  0  0  0
   32.0315  -23.0464   35.1701 C   0  0  0  0  0  0  0  0  0  0  0  0
   31.9138  -22.0593   34.2136 C   0  0  0  0  0  0  0  0  0  0  0  0
   32.4948  -20.8184   34.4568 C   0  0  0  0  0  0  0  0  0  0  0  0
   32.3553  -19.8568   33.4676 F   0  0  0  0  0  0  0  0  0  0  0  0
   32.7880  -23.8339   37.3700 C   0  0  0  0  0  0  0  0  0  0  0  0
   31.7573  -24.0382   38.2757 C   0  0  0  0  0  0  0  0  0  0  0  0
   30.6573  -23.2274   38.2658 F   0  0  0  0  0  0  0  0  0  0  0  0
   31.7766  -25.0342   39.2236 C   0  0  0  0  0  0  0  0  0  0  0  0
   32.8404  -25.8839   39.3100 C   0  0  0  0  0  0  0  0  0  0  0  0
   33.8969  -25.7054   38.4151 C   0  0  0  0  0  0  0  0  0  0  0  0
   33.8485  -24.6975   37.4766 C   0  0  0  0  0  0  0  0  0  0  0  0
   34.8860  -24.5165   36.5913 F   0  0  0  0  0  0  0  0  0  0  0  0
   36.0669  -16.9927   35.3937 C   0  0  0  0  0  0  0  0  0  0  0  0
   36.6509  -15.7829   35.7853 C   0  0  0  0  0  0  0  0  0  0  0  0
   35.9077  -14.7339   36.2998 C   0  0  0  0  0  0  0  0  0  0  0  0
   34.5932  -14.8424   36.4410 N   0  0  0  0  0  0  0  0  0  0  0  0
   34.0025  -16.0003   36.0673 C   0  0  0  0  0  0  0  0  0  0  0  0
   34.6845  -17.0485   35.5555 C   0  0  0  0  0  0  0  0  0  0  0  0
   39.8694  -19.0914   37.2585 C   0  0  0  0  0  0  0  0  0  0  0  0
   38.8043  -19.4002   36.1506 C   0  0  0  0  0  0  0  0  0  0  0  0
   39.5573  -19.3733   34.8169 C   0  0  0  0  0  0  0  0  0  0  0  0
   38.5520  -19.3443   33.7306 C   0  0  0  0  0  0  0  0  0  0  0  0
   39.1286  -19.4697   32.4411 N   0  0  0  0  0  0  0  0  0  0  0  0
   37.7047  -18.0447   33.7973 C   0  0  0  0  0  0  0  0  0  0  0  0
   36.8169  -18.1718   35.0313 C   0  0  0  0  0  0  0  0  0  0  0  0
   37.8766  -18.2630   36.2026 C   0  0  0  0  0  0  0  0  0  0  0  0
   38.4214  -19.4803   31.6590 H   0  0  0  0  0  0  0  0  0  0  0  0
   39.8687  -20.1709   32.3153 H   0  0  0  0  0  0  0  0  0  0  0  0
 26 27  1  0  0  0
 27 28  1  0  0  0
 28 29  1  0  0  0
 29 30  1  0  0  0
 29 31  1  0  0  0
 31 32  1  0  0  0
 32 20  1  0  0  0
 20 21  2  0  0  0
 21 22  1  0  0  0
 22 23  2  0  0  0
 23 24  1  0  0  0
 24 25  2  0  0  0
 25  1  1  0  0  0
  1  2  1  0  0  0
  2  3  2  0  0  0
  2  5  1  0  0  0
  5  6  2  0  0  0
  6  7  1  0  0  0
  7 12  1  0  0  0
 12 13  2  0  0  0
 13 14  1  0  0  0
 13 15  1  0  0  0
 15 16  2  0  0  0
 16 17  1  0  0  0
 17 18  2  0  0  0
 18 19  1  0  0  0
  7  8  2  0  0  0
  8  9  1  0  0  0
  9 10  2  0  0  0
 10 11  1  0  0  0
 32 33  1  0  0  0
 33 27  1  0  0  0
 25 20  1  0  0  0
 10  5  1  0  0  0
 18 12  1  0  0  0
 30 34  1  0  0  0
 30 35  1  0  0  0
  1  4  1  0  0  0
M  END
> <minimizedAffinity>
-6.81890

> <CNNscore>
0.3516961038

> <CNNaffinity>
6.1090078354

> <CNN_VS>
2.1485142708

> <CNNaffinity_variance>
0.0853661150

$$$$
[H]c1nc([H])c(N([H])C(=O)c2nc(-c3c(F)c([H])c([H])c([H])c3F)c([H])c([H])c2F)c([C@@]2([H])C([H])([H])[C@@]([H])(N([H])[H])C([H])([H])[C@@]([H])(C([H])([H])[H])C2([H])[H])c1[H]


 35 38  0  0  0  0  0  0  0  0999 V2000
   36.6731  -20.7853   36.5364 N   0  0  0  0  0  0  0  0  0  0  0  0
   35.7934  -19.7001   36.6018 C   0  0  0  0  0  0  0  0  0  0  0  0
   35.9755  -18.7998   37.5194 O   0  0  0  0  0  0  0  0  0  0  0  0
   36.5200  -21.4963   35.7855 H   0  0  0  0  0  0  0  0  0  0  0  0
   34.6554  -19.4090   35.7454 C   0  0  0  0  0  0  0  0  0  0  0  0
   33.5617  -20.1891   35.8184 N   0  0  0  0  0  0  0  0  0  0  0  0
   32.4361  -20.0649   35.1122 C   0  0  0  0  0  0  0  0  0  0  0  0
   32.4014  -19.0069   34.1917 C   0  0  0  0  0  0  0  0  0  0  0  0
   33.4861  -18.1653   34.0577 C   0  0  0  0  0  0  0  0  0  0  0  0
   34.6082  -18.3878   34.8501 C   0  0  0  0  0  0  0  0  0  0  0  0
   35.6768  -17.5205   34.6805 F   0  0  0  0  0  0  0  0  0  0  0  0
   31.2643  -20.8998   35.2671 C   0  0  0  0  0  0  0  0  0  0  0  0
   31.3431  -22.2844   35.2342 C   0  0  0  0  0  0  0  0  0  0  0  0
   32.5407  -22.9038   35.0120 F   0  0  0  0  0  0  0  0  0  0  0  0
   30.2519  -23.1031   35.4074 C   0  0  0  0  0  0  0  0  0  0  0  0
   29.0159  -22.5686   35.6257 C   0  0  0  0  0  0  0  0  0  0  0  0
   28.8999  -21.1779   35.6627 C   0  0  0  0  0  0  0  0  0  0  0  0
   30.0121  -20.3839   35.4850 C   0  0  0  0  0  0  0  0  0  0  0  0
   29.9047  -19.0126   35.5209 F   0  0  0  0  0  0  0  0  0  0  0  0
   38.9898  -20.5445   36.9653 C   0  0  0  0  0  0  0  0  0  0  0  0
   40.0150  -20.5745   37.9173 C   0  0  0  0  0  0  0  0  0  0  0  0
   39.7934  -20.9452   39.2330 C   0  0  0  0  0  0  0  0  0  0  0  0
   38.5799  -21.2904   39.6426 N   0  0  0  0  0  0  0  0  0  0  0  0
   37.5699  -21.2672   38.7433 C   0  0  0  0  0  0  0  0  0  0  0  0
   37.7361  -20.9075   37.4516 C   0  0  0  0  0  0  0  0  0  0  0  0
   41.9330  -22.5365   33.8490 C   0  0  0  0  0  0  0  0  0  0  0  0
   40.7119  -21.5539   33.8223 C   0  0  0  0  0  0  0  0  0  0  0  0
   41.2666  -20.1975   33.3766 C   0  0  0  0  0  0  0  0  0  0  0  0
   40.2278  -19.1759   33.6388 C   0  0  0  0  0  0  0  0  0  0  0  0
   40.5686  -17.8979   33.1273 N   0  0  0  0  0  0  0  0  0  0  0  0
   39.9332  -19.0658   35.1594 C   0  0  0  0  0  0  0  0  0  0  0  0
   39.2059  -20.3482   35.5515 C   0  0  0  0  0  0  0  0  0  0  0  0
   40.2815  -21.4611   35.2234 C   0  0  0  0  0  0  0  0  0  0  0  0
   39.8243  -17.1668   33.2809 H   0  0  0  0  0  0  0  0  0  0  0  0
   40.9785  -17.8540   32.1864 H   0  0  0  0  0  0  0  0  0  0  0  0
 26 27  1  0  0  0
 27 28  1  0  0  0
 28 29  1  0  0  0
 29 30  1  0  0  0
 29 31  1  0  0  0
 31 32  1  0  0  0
 32 20  1  0  0  0
 20 21  2  0  0  0
 21 22  1  0  0  0
 22 23  2  0  0  0
 23 24  1  0  0  0
 24 25  2  0  0  0
 25  1  1  0  0  0
  1  2  1  0  0  0
  2  3  2  0  0  0
  2  5  1  0  0  0
  5  6  2  0  0  0
  6  7  1  0  0  0
  7 12  1  0  0  0
 12 13  2  0  0  0
 13 14  1  0  0  0
 13 15  1  0  0  0
 15 16  2  0  0  0
 16 17  1  0  0  0
 17 18  2  0  0  0
 18 19  1  0  0  0
  7  8  2  0  0  0
  8  9  1  0  0  0
  9 10  2  0  0  0
 10 11  1  0  0  0
 32 33  1  0  0  0
 33 27  1  0  0  0
 25 20  1  0  0  0
 10  5  1  0  0  0
 18 12  1  0  0  0
 30 34  1  0  0  0
 30 35  1  0  0  0
  1  4  1  0  0  0
M  END
> <minimizedAffinity>
-7.28164

> <CNNscore>
0.3246803284

> <CNNaffinity>
5.8490281105

> <CNN_VS>
1.8990644217

> <CNNaffinity_variance>
0.2749094963

$$$$
[H]c1nc([H])c(N([H])C(=O)c2nc(-c3c(F)c([H])c([H])c([H])c3F)c([H])c([H])c2F)c([C@@]2([H])C([H])([H])[C@@]([H])(N([H])[H])C([H])([H])[C@@]([H])(C([H])([H])[H])C2([H])[H])c1[H]


 35 38  0  0  0  0  0  0  0  0999 V2000
   36.7040  -20.8221   36.5481 N   0  0  0  0  0  0  0  0  0  0  0  0
   35.8386  -19.7238   36.5749 C   0  0  0  0  0  0  0  0  0  0  0  0
   36.0373  -18.7903   37.4551 O   0  0  0  0  0  0  0  0  0  0  0  0
   36.5376  -21.5602   35.8268 H   0  0  0  0  0  0  0  0  0  0  0  0
   34.6996  -19.4522   35.7134 C   0  0  0  0  0  0  0  0  0  0  0  0
   33.5998  -20.2203   35.8164 N   0  0  0  0  0  0  0  0  0  0  0  0
   32.4725  -20.1106   35.1106 C   0  0  0  0  0  0  0  0  0  0  0  0
   32.4428  -19.0836   34.1554 C   0  0  0  0  0  0  0  0  0  0  0  0
   33.5338  -18.2559   33.9894 C   0  0  0  0  0  0  0  0  0  0  0  0
   34.6572  -18.4611   34.7846 C   0  0  0  0  0  0  0  0  0  0  0  0
   35.7320  -17.6087   34.5823 F   0  0  0  0  0  0  0  0  0  0  0  0
   31.2947  -20.9301   35.2976 C   0  0  0  0  0  0  0  0  0  0  0  0
   30.0418  -20.3730   35.5081 C   0  0  0  0  0  0  0  0  0  0  0  0
   29.8920  -19.0168   35.5846 F   0  0  0  0  0  0  0  0  0  0  0  0
   28.9010  -21.1256   35.6600 C   0  0  0  0  0  0  0  0  0  0  0  0
   28.9606  -22.4874   35.6063 C   0  0  0  0  0  0  0  0  0  0  0  0
   30.2064  -23.0818   35.3981 C   0  0  0  0  0  0  0  0  0  0  0  0
   31.3319  -22.3005   35.2500 C   0  0  0  0  0  0  0  0  0  0  0  0
   32.5626  -22.8799   35.0439 F   0  0  0  0  0  0  0  0  0  0  0  0
   39.0174  -20.5425   36.9709 C   0  0  0  0  0  0  0  0  0  0  0  0
   40.0447  -20.5503   37.9211 C   0  0  0  0  0  0  0  0  0  0  0  0
   39.8313  -20.9158   39.2396 C   0  0  0  0  0  0  0  0  0  0  0  0
   38.6241  -21.2772   39.6538 N   0  0  0  0  0  0  0  0  0  0  0  0
   37.6122  -21.2756   38.7564 C   0  0  0  0  0  0  0  0  0  0  0  0
   37.7704  -20.9218   37.4620 C   0  0  0  0  0  0  0  0  0  0  0  0
   41.9862  -22.5080   33.8621 C   0  0  0  0  0  0  0  0  0  0  0  0
   40.7496  -21.5451   33.8314 C   0  0  0  0  0  0  0  0  0  0  0  0
   41.2819  -20.1830   33.3757 C   0  0  0  0  0  0  0  0  0  0  0  0
   40.2275  -19.1763   33.6331 C   0  0  0  0  0  0  0  0  0  0  0  0
   40.5471  -17.8965   33.1127 N   0  0  0  0  0  0  0  0  0  0  0  0
   39.9339  -19.0609   35.1536 C   0  0  0  0  0  0  0  0  0  0  0  0
   39.2278  -20.3521   35.5555 C   0  0  0  0  0  0  0  0  0  0  0  0
   40.3203  -21.4499   35.2326 C   0  0  0  0  0  0  0  0  0  0  0  0
   39.7916  -17.1763   33.2629 H   0  0  0  0  0  0  0  0  0  0  0  0
   40.9545  -17.8523   32.1707 H   0  0  0  0  0  0  0  0  0  0  0  0
 26 27  1  0  0  0
 27 28  1  0  0  0
 28 29  1  0  0  0
 29 30  1  0  0  0
 29 31  1  0  0  0
 31 32  1  0  0  0
 32 20  1  0  0  0
 20 21  2  0  0  0
 21 22  1  0  0  0
 22 23  2  0  0  0
 23 24  1  0  0  0
 24 25  2  0  0  0
 25  1  1  0  0  0
  1  2  1  0  0  0
  2  3  2  0  0  0
  2  5  1  0  0  0
  5  6  2  0  0  0
  6  7  1  0  0  0
  7 12  1  0  0  0
 12 13  2  0  0  0
 13 14  1  0  0  0
 13 15  1  0  0  0
 15 16  2  0  0  0
 16 17  1  0  0  0
 17 18  2  0  0  0
 18 19  1  0  0  0
  7  8  2  0  0  0
  8  9  1  0  0  0
  9 10  2  0  0  0
 10 11  1  0  0  0
 32 33  1  0  0  0
 33 27  1  0  0  0
 25 20  1  0  0  0
 10  5  1  0  0  0
 18 12  1  0  0  0
 30 34  1  0  0  0
 30 35  1  0  0  0
  1  4  1  0  0  0
M  END
> <minimizedAffinity>
-7.20464

> <CNNscore>
0.3172425032

> <CNNaffinity>
5.8421850204

> <CNN_VS>
1.8533893824

> <CNNaffinity_variance>
0.2678442597

$$$$
[H]c1nc([H])c(N([H])C(=O)c2nc(-c3c(F)c([H])c([H])c([H])c3F)c([H])c([H])c2F)c([C@@]2([H])C([H])([H])[C@@]([H])(N([H])[H])C([H])([H])[C@@]([H])(C([H])([H])[H])C2([H])[H])c1[H]


 35 38  0  0  0  0  0  0  0  0999 V2000
   36.9131  -17.2884   35.1952 N   0  0  0  0  0  0  0  0  0  0  0  0
   37.5861  -17.9256   36.2425 C   0  0  0  0  0  0  0  0  0  0  0  0
   37.2667  -17.6289   37.4655 O   0  0  0  0  0  0  0  0  0  0  0  0
   37.1738  -17.5457   34.2161 H   0  0  0  0  0  0  0  0  0  0  0  0
   38.6342  -18.9296   36.1620 C   0  0  0  0  0  0  0  0  0  0  0  0
   39.6450  -18.8969   37.0493 N   0  0  0  0  0  0  0  0  0  0  0  0
   40.6807  -19.7355   37.1206 C   0  0  0  0  0  0  0  0  0  0  0  0
   40.7138  -20.7550   36.1576 C   0  0  0  0  0  0  0  0  0  0  0  0
   39.7136  -20.8521   35.2125 C   0  0  0  0  0  0  0  0  0  0  0  0
   38.6784  -19.9223   35.2350 C   0  0  0  0  0  0  0  0  0  0  0  0
   37.6962  -20.0549   34.2652 F   0  0  0  0  0  0  0  0  0  0  0  0
   41.7161  -19.6896   38.1306 C   0  0  0  0  0  0  0  0  0  0  0  0
   42.9340  -19.0660   37.9017 C   0  0  0  0  0  0  0  0  0  0  0  0
   43.2061  -18.5053   36.6856 F   0  0  0  0  0  0  0  0  0  0  0  0
   43.9247  -18.9813   38.8516 C   0  0  0  0  0  0  0  0  0  0  0  0
   43.7407  -19.5220   40.0905 C   0  0  0  0  0  0  0  0  0  0  0  0
   42.5271  -20.1595   40.3544 C   0  0  0  0  0  0  0  0  0  0  0  0
   41.5537  -20.2285   39.3815 C   0  0  0  0  0  0  0  0  0  0  0  0
   40.3552  -20.8547   39.6353 F   0  0  0  0  0  0  0  0  0  0  0  0
   34.6207  -16.8455   35.5929 C   0  0  0  0  0  0  0  0  0  0  0  0
   33.6552  -15.8992   35.9539 C   0  0  0  0  0  0  0  0  0  0  0  0
   33.9639  -14.5636   36.1497 C   0  0  0  0  0  0  0  0  0  0  0  0
   35.2079  -14.1284   35.9991 N   0  0  0  0  0  0  0  0  0  0  0  0
   36.1617  -15.0229   35.6532 C   0  0  0  0  0  0  0  0  0  0  0  0
   35.9099  -16.3358   35.4571 C   0  0  0  0  0  0  0  0  0  0  0  0
   30.5737  -19.0830   34.6145 C   0  0  0  0  0  0  0  0  0  0  0  0
   32.1107  -19.3746   34.5132 C   0  0  0  0  0  0  0  0  0  0  0  0
   32.4009  -20.4856   35.5269 C   0  0  0  0  0  0  0  0  0  0  0  0
   33.8692  -20.5733   35.6937 C   0  0  0  0  0  0  0  0  0  0  0  0
   34.2691  -21.6710   36.4976 N   0  0  0  0  0  0  0  0  0  0  0  0
   34.4364  -19.2571   36.2914 C   0  0  0  0  0  0  0  0  0  0  0  0
   34.3160  -18.2002   35.1979 C   0  0  0  0  0  0  0  0  0  0  0  0
   32.7529  -18.1328   34.9630 C   0  0  0  0  0  0  0  0  0  0  0  0
   35.3145  -21.7631   36.6007 H   0  0  0  0  0  0  0  0  0  0  0  0
   33.8059  -22.5738   36.3374 H   0  0  0  0  0  0  0  0  0  0  0  0
 26 27  1  0  0  0
 27 28  1  0  0  0
 28 29  1  0  0  0
 29 30  1  0  0  0
 29 31  1  0  0  0
 31 32  1  0  0  0
 32 20  1  0  0  0
 20 21  2  0  0  0
 21 22  1  0  0  0
 22 23  2  0  0  0
 23 24  1  0  0  0
 24 25  2  0  0  0
 25  1  1  0  0  0
  1  2  1  0  0  0
  2  3  2  0  0  0
  2  5  1  0  0  0
  5  6  2  0  0  0
  6  7  1  0  0  0
  7 12  1  0  0  0
 12 13  2  0  0  0
 13 14  1  0  0  0
 13 15  1  0  0  0
 15 16  2  0  0  0
 16 17  1  0  0  0
 17 18  2  0  0  0
 18 19  1  0  0  0
  7  8  2  0  0  0
  8  9  1  0  0  0
  9 10  2  0  0  0
 10 11  1  0  0  0
 32 33  1  0  0  0
 33 27  1  0  0  0
 25 20  1  0  0  0
 10  5  1  0  0  0
 18 12  1  0  0  0
 30 34  1  0  0  0
 30 35  1  0  0  0
  1  4  1  0  0  0
M  END
> <minimizedAffinity>
-6.85986

> <CNNscore>
0.3159967959

> <CNNaffinity>
6.2029056549

> <CNN_VS>
1.9600982666

> <CNNaffinity_variance>
0.0331805646

$$$$
[H]c1nc([H])c(N([H])C(=O)c2nc(-c3c(F)c([H])c([H])c([H])c3F)c([H])c([H])c2F)c([C@@]2([H])C([H])([H])[C@@]([H])(N([H])[H])C([H])([H])[C@@]([H])(C([H])([H])[H])C2([H])[H])c1[H]


 35 38  0  0  0  0  0  0  0  0999 V2000
   34.2699  -18.6277   35.8843 N   0  0  0  0  0  0  0  0  0  0  0  0
   34.3747  -19.5387   36.9402 C   0  0  0  0  0  0  0  0  0  0  0  0
   34.9835  -19.1718   38.0267 O   0  0  0  0  0  0  0  0  0  0  0  0
   33.7675  -18.9341   35.0202 H   0  0  0  0  0  0  0  0  0  0  0  0
   33.8679  -20.8994   37.0108 C   0  0  0  0  0  0  0  0  0  0  0  0
   32.5388  -21.1044   37.0493 N   0  0  0  0  0  0  0  0  0  0  0  0
   31.9071  -22.2782   37.1128 C   0  0  0  0  0  0  0  0  0  0  0  0
   32.7265  -23.4162   37.1492 C   0  0  0  0  0  0  0  0  0  0  0  0
   34.0995  -23.2864   37.1158 C   0  0  0  0  0  0  0  0  0  0  0  0
   34.6499  -22.0102   37.0463 C   0  0  0  0  0  0  0  0  0  0  0  0
   36.0337  -21.9255   37.0183 F   0  0  0  0  0  0  0  0  0  0  0  0
   30.4700  -22.4477   37.0973 C   0  0  0  0  0  0  0  0  0  0  0  0
   29.7116  -22.1603   35.9719 C   0  0  0  0  0  0  0  0  0  0  0  0
   30.3060  -21.6652   34.8454 F   0  0  0  0  0  0  0  0  0  0  0  0
   28.3492  -22.3391   35.9186 C   0  0  0  0  0  0  0  0  0  0  0  0
   27.6736  -22.8209   37.0014 C   0  0  0  0  0  0  0  0  0  0  0  0
   28.4057  -23.1186   38.1521 C   0  0  0  0  0  0  0  0  0  0  0  0
   29.7703  -22.9282   38.1749 C   0  0  0  0  0  0  0  0  0  0  0  0
   30.4978  -23.2201   39.3056 F   0  0  0  0  0  0  0  0  0  0  0  0
   36.0882  -17.1773   35.4385 C   0  0  0  0  0  0  0  0  0  0  0  0
   36.5738  -15.8651   35.4615 C   0  0  0  0  0  0  0  0  0  0  0  0
   35.8476  -14.8158   35.9993 C   0  0  0  0  0  0  0  0  0  0  0  0
   34.6454  -15.0230   36.5201 N   0  0  0  0  0  0  0  0  0  0  0  0
   34.1507  -16.2818   36.5082 C   0  0  0  0  0  0  0  0  0  0  0  0
   34.8190  -17.3356   35.9900 C   0  0  0  0  0  0  0  0  0  0  0  0
   40.0341  -19.0885   37.2046 C   0  0  0  0  0  0  0  0  0  0  0  0
   38.9517  -19.4539   36.1310 C   0  0  0  0  0  0  0  0  0  0  0  0
   39.6632  -19.4049   34.7754 C   0  0  0  0  0  0  0  0  0  0  0  0
   38.6261  -19.4300   33.7193 C   0  0  0  0  0  0  0  0  0  0  0  0
   39.1696  -19.5406   32.4142 N   0  0  0  0  0  0  0  0  0  0  0  0
   37.7238  -18.1689   33.8018 C   0  0  0  0  0  0  0  0  0  0  0  0
   36.8793  -18.3248   35.0625 C   0  0  0  0  0  0  0  0  0  0  0  0
   37.9759  -18.3587   36.2024 C   0  0  0  0  0  0  0  0  0  0  0  0
   38.4409  -19.5894   31.6535 H   0  0  0  0  0  0  0  0  0  0  0  0
   39.9364  -20.2092   32.2715 H   0  0  0  0  0  0  0  0  0  0  0  0
 26 27  1  0  0  0
 27 28  1  0  0  0
 28 29  1  0  0  0
 29 30  1  0  0  0
 29 31  1  0  0  0
 31 32  1  0  0  0
 32 20  1  0  0  0
 20 21  2  0  0  0
 21 22  1  0  0  0
 22 23  2  0  0  0
 23 24  1  0  0  0
 24 25  2  0  0  0
 25  1  1  0  0  0
  1  2  1  0  0  0
  2  3  2  0  0  0
  2  5  1  0  0  0
  5  6  2  0  0  0
  6  7  1  0  0  0
  7 12  1  0  0  0
 12 13  2  0  0  0
 13 14  1  0  0  0
 13 15  1  0  0  0
 15 16  2  0  0  0
 16 17  1  0  0  0
 17 18  2  0  0  0
 18 19  1  0  0  0
  7  8  2  0  0  0
  8  9  1  0  0  0
  9 10  2  0  0  0
 10 11  1  0  0  0
 32 33  1  0  0  0
 33 27  1  0  0  0
 25 20  1  0  0  0
 10  5  1  0  0  0
 18 12  1  0  0  0
 30 34  1  0  0  0
 30 35  1  0  0  0
  1  4  1  0  0  0
M  END
> <minimizedAffinity>
-6.32154

> <CNNscore>
0.2507739663

> <CNNaffinity>
5.7960367203

> <CNN_VS>
1.4534951448

> <CNNaffinity_variance>
0.1920927465

$$$$
[H]c1nc([H])c(N([H])C(=O)c2nc(-c3c(F)c([H])c([H])c([H])c3F)c([H])c([H])c2F)c([C@@]2([H])C([H])([H])[C@@]([H])(N([H])[H])C([H])([H])[C@@]([H])(C([H])([H])[H])C2([H])[H])c1[H]


 35 38  0  0  0  0  0  0  0  0999 V2000
   33.5996  -12.2822   37.6459 N   0  0  0  0  0  0  0  0  0  0  0  0
   34.6371  -12.8006   36.8643 C   0  0  0  0  0  0  0  0  0  0  0  0
   35.1604  -12.0528   35.9411 O   0  0  0  0  0  0  0  0  0  0  0  0
   33.1958  -12.8925   38.3923 H   0  0  0  0  0  0  0  0  0  0  0  0
   35.2558  -14.1137   36.9433 C   0  0  0  0  0  0  0  0  0  0  0  0
   34.5872  -15.1842   36.4775 N   0  0  0  0  0  0  0  0  0  0  0  0
   35.0033  -16.4522   36.4699 C   0  0  0  0  0  0  0  0  0  0  0  0
   36.2749  -16.6852   37.0146 C   0  0  0  0  0  0  0  0  0  0  0  0
   37.0202  -15.6377   37.5147 C   0  0  0  0  0  0  0  0  0  0  0  0
   36.4863  -14.3535   37.4679 C   0  0  0  0  0  0  0  0  0  0  0  0
   37.2676  -13.3310   37.9844 F   0  0  0  0  0  0  0  0  0  0  0  0
   34.2664  -17.5628   35.9065 C   0  0  0  0  0  0  0  0  0  0  0  0
   33.4622  -17.4139   34.7859 C   0  0  0  0  0  0  0  0  0  0  0  0
   33.3123  -16.1883   34.2003 F   0  0  0  0  0  0  0  0  0  0  0  0
   32.7737  -18.4564   34.2115 C   0  0  0  0  0  0  0  0  0  0  0  0
   32.8594  -19.7125   34.7369 C   0  0  0  0  0  0  0  0  0  0  0  0
   33.6583  -19.8980   35.8666 C   0  0  0  0  0  0  0  0  0  0  0  0
   34.3358  -18.8330   36.4197 C   0  0  0  0  0  0  0  0  0  0  0  0
   35.1254  -19.0091   37.5326 F   0  0  0  0  0  0  0  0  0  0  0  0
   31.7699  -10.7796   37.7030 C   0  0  0  0  0  0  0  0  0  0  0  0
   31.3380   -9.4536   37.5867 C   0  0  0  0  0  0  0  0  0  0  0  0
   32.1920   -8.4254   37.2250 C   0  0  0  0  0  0  0  0  0  0  0  0
   33.4715   -8.6671   36.9721 N   0  0  0  0  0  0  0  0  0  0  0  0
   33.9162   -9.9398   37.0800 C   0  0  0  0  0  0  0  0  0  0  0  0
   33.1228  -10.9743   37.4350 C   0  0  0  0  0  0  0  0  0  0  0  0
   27.1062  -11.1277   38.3891 C   0  0  0  0  0  0  0  0  0  0  0  0
   28.3099  -12.0928   38.1114 C   0  0  0  0  0  0  0  0  0  0  0  0
   28.4908  -12.9250   39.3845 C   0  0  0  0  0  0  0  0  0  0  0  0
   29.7958  -13.6177   39.2903 C   0  0  0  0  0  0  0  0  0  0  0  0
   30.0090  -14.5398   40.3464 N   0  0  0  0  0  0  0  0  0  0  0  0
   30.9625  -12.5937   39.2505 C   0  0  0  0  0  0  0  0  0  0  0  0
   30.8844  -11.9040   37.8921 C   0  0  0  0  0  0  0  0  0  0  0  0
   29.4671  -11.2032   37.9494 C   0  0  0  0  0  0  0  0  0  0  0  0
   30.9223  -15.0623   40.2759 H   0  0  0  0  0  0  0  0  0  0  0  0
   29.2253  -15.1468   40.6157 H   0  0  0  0  0  0  0  0  0  0  0  0
 26 27  1  0  0  0
 27 28  1  0  0  0
 28 29  1  0  0  0
 29 30  1  0  0  0
 29 31  1  0  0  0
 31 32  1  0  0  0
 32 20  1  0  0  0
 20 21  2  0  0  0
 21 22  1  0  0  0
 22 23  2  0  0  0
 23 24  1  0  0  0
 24 25  2  0  0  0
 25  1  1  0  0  0
  1  2  1  0  0  0
  2  3  2  0  0  0
  2  5  1  0  0  0
  5  6  2  0  0  0
  6  7  1  0  0  0
  7 12  1  0  0  0
 12 13  2  0  0  0
 13 14  1  0  0  0
 13 15  1  0  0  0
 15 16  2  0  0  0
 16 17  1  0  0  0
 17 18  2  0  0  0
 18 19  1  0  0  0
  7  8  2  0  0  0
  8  9  1  0  0  0
  9 10  2  0  0  0
 10 11  1  0  0  0
 32 33  1  0  0  0
 33 27  1  0  0  0
 25 20  1  0  0  0
 10  5  1  0  0  0
 18 12  1  0  0  0
 30 34  1  0  0  0
 30 35  1  0  0  0
  1  4  1  0  0  0
M  END
> <minimizedAffinity>
-9.76994

> <CNNscore>
0.2428227514

> <CNNaffinity>
6.8895034790

> <CNN_VS>
1.6729282141

> <CNNaffinity_variance>
0.0933233052

$$$$
[H]OC(=O)C1(C([H])([H])c2c([H])nc(OC([H])([H])C([H])([H])c3nc(-c4c([H])c([H])c([H])c(Cl)c4[H])oc3C([H])([H])[H])c([H])c2[H])OC([H])([H])C([H])([H])C1([H])[H]


 32 35  0  0  0  0  0  0  0  0999 V2000
   33.7408  -16.7050   35.6606 O   0  0  0  0  0  0  0  0  0  0  0  0
   33.2627  -17.9716   35.3730 C   0  0  0  0  0  0  0  0  0  0  0  0
   34.0693  -18.8558   34.6377 C   0  0  0  0  0  0  0  0  0  0  0  0
   33.6178  -20.1264   34.3361 C   0  0  0  0  0  0  0  0  0  0  0  0
   32.3748  -20.5700   34.7393 C   0  0  0  0  0  0  0  0  0  0  0  0
   31.6282  -19.6710   35.4516 C   0  0  0  0  0  0  0  0  0  0  0  0
   32.0732  -18.4405   35.7402 N   0  0  0  0  0  0  0  0  0  0  0  0
   31.9013  -21.9169   34.4212 C   0  0  0  0  0  0  0  0  0  0  0  0
   31.9243  -22.9271   35.5090 C   0  0  0  0  0  0  0  0  0  0  0  0
   30.6201  -22.9022   36.2921 C   0  0  0  0  0  0  0  0  0  0  0  0
   29.7052  -23.6091   35.3116 C   0  0  0  0  0  0  0  0  0  0  0  0
   30.6469  -24.5174   34.5998 C   0  0  0  0  0  0  0  0  0  0  0  0
   31.9448  -24.2004   34.9120 O   0  0  0  0  0  0  0  0  0  0  0  0
   33.0886  -22.8679   36.4168 C   0  0  0  0  0  0  0  0  0  0  0  0
   33.0762  -22.1336   37.4660 O   0  0  0  0  0  0  0  0  0  0  0  0
   34.2670  -23.5719   36.2308 O   0  0  0  0  0  0  0  0  0  0  0  0
   34.6696  -24.0255   37.0389 H   0  0  0  0  0  0  0  0  0  0  0  0
   35.0711  -16.2868   35.6422 C   0  0  0  0  0  0  0  0  0  0  0  0
   35.4889  -15.8908   37.0509 C   0  0  0  0  0  0  0  0  0  0  0  0
   37.7066  -13.6579   37.2936 C   0  0  0  0  0  0  0  0  0  0  0  0
   36.2344  -13.4531   37.2760 C   0  0  0  0  0  0  0  0  0  0  0  0
   35.6081  -12.3143   37.3607 O   0  0  0  0  0  0  0  0  0  0  0  0
   34.3158  -12.4761   37.3150 C   0  0  0  0  0  0  0  0  0  0  0  0
   34.0934  -13.7943   37.1935 N   0  0  0  0  0  0  0  0  0  0  0  0
   35.2685  -14.4460   37.1650 C   0  0  0  0  0  0  0  0  0  0  0  0
   33.2970  -11.4391   37.3817 C   0  0  0  0  0  0  0  0  0  0  0  0
   33.5762  -10.0900   37.3847 C   0  0  0  0  0  0  0  0  0  0  0  0
   32.5859   -9.1309   37.4464 C   0  0  0  0  0  0  0  0  0  0  0  0
   31.2563   -9.4914   37.5090 C   0  0  0  0  0  0  0  0  0  0  0  0
   30.9378  -10.8403   37.5080 C   0  0  0  0  0  0  0  0  0  0  0  0
   29.2541  -11.3536   37.5862 Cl  0  0  0  0  0  0  0  0  0  0  0  0
   31.9422  -11.7806   37.4458 C   0  0  0  0  0  0  0  0  0  0  0  0
 20 21  1  0  0  0
 21 22  1  0  0  0
 22 23  1  0  0  0
 23 26  1  0  0  0
 26 27  2  0  0  0
 27 28  1  0  0  0
 28 29  2  0  0  0
 29 30  1  0  0  0
 30 31  1  0  0  0
 30 32  2  0  0  0
 23 24  2  0  0  0
 24 25  1  0  0  0
 25 19  1  0  0  0
 19 18  1  0  0  0
 18  1  1  0  0  0
  1  2  1  0  0  0
  2  3  2  0  0  0
  3  4  1  0  0  0
  4  5  2  0  0  0
  5  8  1  0  0  0
  8  9  1  0  0  0
  9 14  1  0  0  0
 14 15  2  0  0  0
 14 16  1  0  0  0
  9 10  1  0  0  0
 10 11  1  0  0  0
 11 12  1  0  0  0
 12 13  1  0  0  0
  5  6  1  0  0  0
  6  7  2  0  0  0
 25 21  2  0  0  0
  7  2  1  0  0  0
 32 26  1  0  0  0
 13  9  1  0  0  0
 16 17  1  0  0  0
M  END
> <minimizedAffinity>
-8.12417

> <CNNscore>
0.5387508869

> <CNNaffinity>
5.9223079681

> <CNN_VS>
3.1906485558

> <CNNaffinity_variance>
0.2037669122

$$$$
[H]OC(=O)C1(C([H])([H])c2c([H])nc(OC([H])([H])C([H])([H])c3nc(-c4c([H])c([H])c([H])c(Cl)c4[H])oc3C([H])([H])[H])c([H])c2[H])OC([H])([H])C([H])([H])C1([H])[H]


 32 35  0  0  0  0  0  0  0  0999 V2000
   36.9774  -20.6031   37.1113 O   0  0  0  0  0  0  0  0  0  0  0  0
   38.2142  -20.8207   37.6931 C   0  0  0  0  0  0  0  0  0  0  0  0
   38.2832  -21.0980   39.0684 C   0  0  0  0  0  0  0  0  0  0  0  0
   39.5045  -21.3193   39.6758 C   0  0  0  0  0  0  0  0  0  0  0  0
   40.6869  -21.2771   38.9656 C   0  0  0  0  0  0  0  0  0  0  0  0
   40.5655  -21.0027   37.6304 C   0  0  0  0  0  0  0  0  0  0  0  0
   39.3775  -20.7892   37.0485 N   0  0  0  0  0  0  0  0  0  0  0  0
   41.9776  -21.5153   39.6112 C   0  0  0  0  0  0  0  0  0  0  0  0
   42.9277  -20.3768   39.6863 C   0  0  0  0  0  0  0  0  0  0  0  0
   42.1896  -19.0810   39.9877 C   0  0  0  0  0  0  0  0  0  0  0  0
   41.9071  -19.2707   41.4650 C   0  0  0  0  0  0  0  0  0  0  0  0
   43.0557  -20.1132   41.9003 C   0  0  0  0  0  0  0  0  0  0  0  0
   43.7488  -20.5765   40.8106 O   0  0  0  0  0  0  0  0  0  0  0  0
   43.8304  -20.2153   38.5278 C   0  0  0  0  0  0  0  0  0  0  0  0
   44.6212  -19.2120   38.4368 O   0  0  0  0  0  0  0  0  0  0  0  0
   43.9081  -21.0974   37.4627 O   0  0  0  0  0  0  0  0  0  0  0  0
   44.8297  -21.3459   37.1316 H   0  0  0  0  0  0  0  0  0  0  0  0
   35.7388  -20.5970   37.7522 C   0  0  0  0  0  0  0  0  0  0  0  0
   34.6355  -20.5599   36.7047 C   0  0  0  0  0  0  0  0  0  0  0  0
   33.9095  -19.7329   33.7463 C   0  0  0  0  0  0  0  0  0  0  0  0
   34.3112  -18.8244   34.8521 C   0  0  0  0  0  0  0  0  0  0  0  0
   34.4347  -17.5295   34.7868 O   0  0  0  0  0  0  0  0  0  0  0  0
   34.8025  -17.0272   35.9316 C   0  0  0  0  0  0  0  0  0  0  0  0
   34.9234  -18.0552   36.7862 N   0  0  0  0  0  0  0  0  0  0  0  0
   34.6250  -19.2021   36.1522 C   0  0  0  0  0  0  0  0  0  0  0  0
   35.0405  -15.6251   36.2406 C   0  0  0  0  0  0  0  0  0  0  0  0
   34.0933  -14.6361   36.0906 C   0  0  0  0  0  0  0  0  0  0  0  0
   34.3503  -13.3149   36.3952 C   0  0  0  0  0  0  0  0  0  0  0  0
   35.5857  -12.9266   36.8692 C   0  0  0  0  0  0  0  0  0  0  0  0
   36.5636  -13.8950   37.0329 C   0  0  0  0  0  0  0  0  0  0  0  0
   38.1586  -13.4512   37.6355 Cl  0  0  0  0  0  0  0  0  0  0  0  0
   36.2855  -15.2078   36.7226 C   0  0  0  0  0  0  0  0  0  0  0  0
 20 21  1  0  0  0
 21 22  1  0  0  0
 22 23  1  0  0  0
 23 26  1  0  0  0
 26 27  2  0  0  0
 27 28  1  0  0  0
 28 29  2  0  0  0
 29 30  1  0  0  0
 30 31  1  0  0  0
 30 32  2  0  0  0
 23 24  2  0  0  0
 24 25  1  0  0  0
 25 19  1  0  0  0
 19 18  1  0  0  0
 18  1  1  0  0  0
  1  2  1  0  0  0
  2  3  2  0  0  0
  3  4  1  0  0  0
  4  5  2  0  0  0
  5  8  1  0  0  0
  8  9  1  0  0  0
  9 14  1  0  0  0
 14 15  2  0  0  0
 14 16  1  0  0  0
  9 10  1  0  0  0
 10 11  1  0  0  0
 11 12  1  0  0  0
 12 13  1  0  0  0
  5  6  1  0  0  0
  6  7  2  0  0  0
 25 21  2  0  0  0
  7  2  1  0  0  0
 32 26  1  0  0  0
 13  9  1  0  0  0
 16 17  1  0  0  0
M  END
> <minimizedAffinity>
-6.36984

> <CNNscore>
0.4771274924

> <CNNaffinity>
5.4596853256

> <CNN_VS>
2.6049659252

> <CNNaffinity_variance>
0.1553708464

$$$$
[H]OC(=O)C1(C([H])([H])c2c([H])nc(OC([H])([H])C([H])([H])c3nc(-c4c([H])c([H])c([H])c(Cl)c4[H])oc3C([H])([H])[H])c([H])c2[H])OC([H])([H])C([H])([H])C1([H])[H]


 32 35  0  0  0  0  0  0  0  0999 V2000
   36.7803  -15.7777   36.3197 O   0  0  0  0  0  0  0  0  0  0  0  0
   35.6644  -14.9604   36.3666 C   0  0  0  0  0  0  0  0  0  0  0  0
   35.8355  -13.5812   36.5705 C   0  0  0  0  0  0  0  0  0  0  0  0
   34.7393  -12.7414   36.6218 C   0  0  0  0  0  0  0  0  0  0  0  0
   33.4524  -13.2178   36.4769 C   0  0  0  0  0  0  0  0  0  0  0  0
   33.3397  -14.5676   36.2814 C   0  0  0  0  0  0  0  0  0  0  0  0
   34.4076  -15.3755   36.2328 N   0  0  0  0  0  0  0  0  0  0  0  0
   32.2945  -12.3256   36.5283 C   0  0  0  0  0  0  0  0  0  0  0  0
   31.9397  -11.7370   37.8443 C   0  0  0  0  0  0  0  0  0  0  0  0
   32.9410  -10.6615   38.2387 C   0  0  0  0  0  0  0  0  0  0  0  0
   32.4945   -9.5332   37.3299 C   0  0  0  0  0  0  0  0  0  0  0  0
   31.0372   -9.8039   37.1833 C   0  0  0  0  0  0  0  0  0  0  0  0
   30.7273  -11.0407   37.6903 O   0  0  0  0  0  0  0  0  0  0  0  0
   31.7358  -12.7006   38.9457 C   0  0  0  0  0  0  0  0  0  0  0  0
   32.5809  -12.8043   39.9024 O   0  0  0  0  0  0  0  0  0  0  0  0
   30.6529  -13.5580   39.0496 O   0  0  0  0  0  0  0  0  0  0  0  0
   30.2177  -13.6488   39.9569 H   0  0  0  0  0  0  0  0  0  0  0  0
   37.0376  -16.8921   37.1178 C   0  0  0  0  0  0  0  0  0  0  0  0
   37.1196  -18.1292   36.2354 C   0  0  0  0  0  0  0  0  0  0  0  0
   36.8200  -20.4994   38.2983 C   0  0  0  0  0  0  0  0  0  0  0  0
   35.7651  -19.9619   37.3996 C   0  0  0  0  0  0  0  0  0  0  0  0
   34.5353  -20.3810   37.3088 O   0  0  0  0  0  0  0  0  0  0  0  0
   33.8629  -19.6986   36.4253 C   0  0  0  0  0  0  0  0  0  0  0  0
   34.7052  -18.7860   35.9159 N   0  0  0  0  0  0  0  0  0  0  0  0
   35.9099  -18.9145   36.4978 C   0  0  0  0  0  0  0  0  0  0  0  0
   32.4680  -19.8783   36.0513 C   0  0  0  0  0  0  0  0  0  0  0  0
   31.7696  -18.9994   35.2527 C   0  0  0  0  0  0  0  0  0  0  0  0
   30.4470  -19.2002   34.9141 C   0  0  0  0  0  0  0  0  0  0  0  0
   29.7613  -20.3065   35.3697 C   0  0  0  0  0  0  0  0  0  0  0  0
   30.4322  -21.2127   36.1758 C   0  0  0  0  0  0  0  0  0  0  0  0
   29.6015  -22.6426   36.7838 Cl  0  0  0  0  0  0  0  0  0  0  0  0
   31.7522  -20.9925   36.5013 C   0  0  0  0  0  0  0  0  0  0  0  0
 20 21  1  0  0  0
 21 22  1  0  0  0
 22 23  1  0  0  0
 23 26  1  0  0  0
 26 27  2  0  0  0
 27 28  1  0  0  0
 28 29  2  0  0  0
 29 30  1  0  0  0
 30 31  1  0  0  0
 30 32  2  0  0  0
 23 24  2  0  0  0
 24 25  1  0  0  0
 25 19  1  0  0  0
 19 18  1  0  0  0
 18  1  1  0  0  0
  1  2  1  0  0  0
  2  3  2  0  0  0
  3  4  1  0  0  0
  4  5  2  0  0  0
  5  8  1  0  0  0
  8  9  1  0  0  0
  9 14  1  0  0  0
 14 15  2  0  0  0
 14 16  1  0  0  0
  9 10  1  0  0  0
 10 11  1  0  0  0
 11 12  1  0  0  0
 12 13  1  0  0  0
  5  6  1  0  0  0
  6  7  2  0  0  0
 25 21  2  0  0  0
  7  2  1  0  0  0
 32 26  1  0  0  0
 13  9  1  0  0  0
 16 17  1  0  0  0
M  END
> <minimizedAffinity>
-7.29361

> <CNNscore>
0.4070659578

> <CNNaffinity>
5.8438262939

> <CNN_VS>
2.3788228035

> <CNNaffinity_variance>
0.0887502879

$$$$
[H]OC(=O)C1(C([H])([H])c2c([H])nc(OC([H])([H])C([H])([H])c3nc(-c4c([H])c([H])c([H])c(Cl)c4[H])oc3C([H])([H])[H])c([H])c2[H])OC([H])([H])C([H])([H])C1([H])[H]


 32 35  0  0  0  0  0  0  0  0999 V2000
   37.0793  -20.4733   36.5215 O   0  0  0  0  0  0  0  0  0  0  0  0
   38.3609  -20.0598   36.8411 C   0  0  0  0  0  0  0  0  0  0  0  0
   39.0803  -20.7608   37.8230 C   0  0  0  0  0  0  0  0  0  0  0  0
   40.3616  -20.3703   38.1622 C   0  0  0  0  0  0  0  0  0  0  0  0
   40.9758  -19.2920   37.5586 C   0  0  0  0  0  0  0  0  0  0  0  0
   40.2330  -18.6429   36.6100 C   0  0  0  0  0  0  0  0  0  0  0  0
   38.9909  -19.0277   36.2865 N   0  0  0  0  0  0  0  0  0  0  0  0
   42.3335  -18.8835   37.9176 C   0  0  0  0  0  0  0  0  0  0  0  0
   43.4583  -19.6808   37.3667 C   0  0  0  0  0  0  0  0  0  0  0  0
   43.2663  -19.9216   35.8768 C   0  0  0  0  0  0  0  0  0  0  0  0
   43.6370  -18.5553   35.3344 C   0  0  0  0  0  0  0  0  0  0  0  0
   44.6205  -18.0716   36.3431 C   0  0  0  0  0  0  0  0  0  0  0  0
   44.6207  -18.8925   37.4424 O   0  0  0  0  0  0  0  0  0  0  0  0
   43.7580  -20.9434   38.0732 C   0  0  0  0  0  0  0  0  0  0  0  0
   44.3872  -20.9472   39.1887 O   0  0  0  0  0  0  0  0  0  0  0  0
   43.4044  -22.2025   37.6169 O   0  0  0  0  0  0  0  0  0  0  0  0
   43.0171  -22.8488   38.2901 H   0  0  0  0  0  0  0  0  0  0  0  0
   36.0195  -20.6776   37.4048 C   0  0  0  0  0  0  0  0  0  0  0  0
   34.7089  -20.6158   36.6339 C   0  0  0  0  0  0  0  0  0  0  0  0
   33.4199  -19.7153   33.8970 C   0  0  0  0  0  0  0  0  0  0  0  0
   34.0151  -18.8327   34.9344 C   0  0  0  0  0  0  0  0  0  0  0  0
   34.1085  -17.5345   34.8885 O   0  0  0  0  0  0  0  0  0  0  0  0
   34.6827  -17.0595   35.9576 C   0  0  0  0  0  0  0  0  0  0  0  0
   34.9773  -18.1099   36.7397 N   0  0  0  0  0  0  0  0  0  0  0  0
   34.5766  -19.2428   36.1377 C   0  0  0  0  0  0  0  0  0  0  0  0
   34.9588  -15.6631   36.2605 C   0  0  0  0  0  0  0  0  0  0  0  0
   34.0361  -14.6506   36.1145 C   0  0  0  0  0  0  0  0  0  0  0  0
   34.3290  -13.3355   36.4132 C   0  0  0  0  0  0  0  0  0  0  0  0
   35.5775  -12.9776   36.8766 C   0  0  0  0  0  0  0  0  0  0  0  0
   36.5316  -13.9703   37.0359 C   0  0  0  0  0  0  0  0  0  0  0  0
   38.1420  -13.5656   37.6252 Cl  0  0  0  0  0  0  0  0  0  0  0  0
   36.2176  -15.2764   36.7318 C   0  0  0  0  0  0  0  0  0  0  0  0
 20 21  1  0  0  0
 21 22  1  0  0  0
 22 23  1  0  0  0
 23 26  1  0  0  0
 26 27  2  0  0  0
 27 28  1  0  0  0
 28 29  2  0  0  0
 29 30  1  0  0  0
 30 31  1  0  0  0
 30 32  2  0  0  0
 23 24  2  0  0  0
 24 25  1  0  0  0
 25 19  1  0  0  0
 19 18  1  0  0  0
 18  1  1  0  0  0
  1  2  1  0  0  0
  2  3  2  0  0  0
  3  4  1  0  0  0
  4  5  2  0  0  0
  5  8  1  0  0  0
  8  9  1  0  0  0
  9 14  1  0  0  0
 14 15  2  0  0  0
 14 16  1  0  0  0
  9 10  1  0  0  0
 10 11  1  0  0  0
 11 12  1  0  0  0
 12 13  1  0  0  0
  5  6  1  0  0  0
  6  7  2  0  0  0
 25 21  2  0  0  0
  7  2  1  0  0  0
 32 26  1  0  0  0
 13  9  1  0  0  0
 16 17  1  0  0  0
M  END
> <minimizedAffinity>
-6.57102

> <CNNscore>
0.3621194065

> <CNNaffinity>
5.6162858009

> <CNN_VS>
2.0337660313

> <CNNaffinity_variance>
0.2321463078

$$$$
[H]OC(=O)C1(C([H])([H])c2c([H])nc(OC([H])([H])C([H])([H])c3nc(-c4c([H])c([H])c([H])c(Cl)c4[H])oc3C([H])([H])[H])c([H])c2[H])OC([H])([H])C([H])([H])C1([H])[H]


 32 35  0  0  0  0  0  0  0  0999 V2000
   36.9660  -15.4768   36.5052 O   0  0  0  0  0  0  0  0  0  0  0  0
   35.7860  -14.7535   36.5088 C   0  0  0  0  0  0  0  0  0  0  0  0
   35.8088  -13.4105   36.9196 C   0  0  0  0  0  0  0  0  0  0  0  0
   34.6459  -12.6644   36.9332 C   0  0  0  0  0  0  0  0  0  0  0  0
   33.4341  -13.2015   36.5493 C   0  0  0  0  0  0  0  0  0  0  0  0
   33.4654  -14.5128   36.1586 C   0  0  0  0  0  0  0  0  0  0  0  0
   34.5973  -15.2298   36.1481 N   0  0  0  0  0  0  0  0  0  0  0  0
   32.2056  -12.4078   36.5616 C   0  0  0  0  0  0  0  0  0  0  0  0
   31.7747  -11.8304   37.8597 C   0  0  0  0  0  0  0  0  0  0  0  0
   32.5911  -10.5905   38.1929 C   0  0  0  0  0  0  0  0  0  0  0  0
   31.9554   -9.5892   37.2487 C   0  0  0  0  0  0  0  0  0  0  0  0
   30.5604  -10.0997   37.1398 C   0  0  0  0  0  0  0  0  0  0  0  0
   30.4631  -11.3481   37.7007 O   0  0  0  0  0  0  0  0  0  0  0  0
   31.7442  -12.7674   39.0017 C   0  0  0  0  0  0  0  0  0  0  0  0
   32.6470  -12.7376   39.9097 O   0  0  0  0  0  0  0  0  0  0  0  0
   30.7747  -13.7372   39.1972 O   0  0  0  0  0  0  0  0  0  0  0  0
   30.4035  -13.8414   40.1311 H   0  0  0  0  0  0  0  0  0  0  0  0
   37.2006  -16.7016   37.1297 C   0  0  0  0  0  0  0  0  0  0  0  0
   37.3106  -17.7885   36.0703 C   0  0  0  0  0  0  0  0  0  0  0  0
   35.0424  -18.7583   34.1011 C   0  0  0  0  0  0  0  0  0  0  0  0
   35.2524  -19.2002   35.5047 C   0  0  0  0  0  0  0  0  0  0  0  0
   34.5322  -20.0630   36.1628 O   0  0  0  0  0  0  0  0  0  0  0  0
   34.9797  -20.2318   37.3750 C   0  0  0  0  0  0  0  0  0  0  0  0
   36.0503  -19.4332   37.5087 N   0  0  0  0  0  0  0  0  0  0  0  0
   36.2583  -18.7671   36.3601 C   0  0  0  0  0  0  0  0  0  0  0  0
   34.4355  -21.1118   38.3984 C   0  0  0  0  0  0  0  0  0  0  0  0
   35.0489  -21.3504   39.6087 C   0  0  0  0  0  0  0  0  0  0  0  0
   34.5049  -22.1895   40.5598 C   0  0  0  0  0  0  0  0  0  0  0  0
   33.3066  -22.8327   40.3320 C   0  0  0  0  0  0  0  0  0  0  0  0
   32.6608  -22.6162   39.1248 C   0  0  0  0  0  0  0  0  0  0  0  0
   31.1270  -23.4138   38.7846 Cl  0  0  0  0  0  0  0  0  0  0  0  0
   33.2217  -21.7748   38.1898 C   0  0  0  0  0  0  0  0  0  0  0  0
 20 21  1  0  0  0
 21 22  1  0  0  0
 22 23  1  0  0  0
 23 26  1  0  0  0
 26 27  2  0  0  0
 27 28  1  0  0  0
 28 29  2  0  0  0
 29 30  1  0  0  0
 30 31  1  0  0  0
 30 32  2  0  0  0
 23 24  2  0  0  0
 24 25  1  0  0  0
 25 19  1  0  0  0
 19 18  1  0  0  0
 18  1  1  0  0  0
  1  2  1  0  0  0
  2  3  2  0  0  0
  3  4  1  0  0  0
  4  5  2  0  0  0
  5  8  1  0  0  0
  8  9  1  0  0  0
  9 14  1  0  0  0
 14 15  2  0  0  0
 14 16  1  0  0  0
  9 10  1  0  0  0
 10 11  1  0  0  0
 11 12  1  0  0  0
 12 13  1  0  0  0
  5  6  1  0  0  0
  6  7  2  0  0  0
 25 21  2  0  0  0
  7  2  1  0  0  0
 32 26  1  0  0  0
 13  9  1  0  0  0
 16 17  1  0  0  0
M  END
> <minimizedAffinity>
-6.35023

> <CNNscore>
0.3537168503

> <CNNaffinity>
5.6590814590

> <CNN_VS>
2.0017125607

> <CNNaffinity_variance>
0.0583360270

$$$$
[H]OC(=O)C1(C([H])([H])c2c([H])nc(OC([H])([H])C([H])([H])c3nc(-c4c([H])c([H])c([H])c(Cl)c4[H])oc3C([H])([H])[H])c([H])c2[H])OC([H])([H])C([H])([H])C1([H])[H]


 32 35  0  0  0  0  0  0  0  0999 V2000
   36.7901  -15.8079   36.3093 O   0  0  0  0  0  0  0  0  0  0  0  0
   35.6742  -14.9905   36.3568 C   0  0  0  0  0  0  0  0  0  0  0  0
   35.8382  -13.6265   36.6494 C   0  0  0  0  0  0  0  0  0  0  0  0
   34.7420  -12.7870   36.7035 C   0  0  0  0  0  0  0  0  0  0  0  0
   33.4618  -13.2490   36.4755 C   0  0  0  0  0  0  0  0  0  0  0  0
   33.3559  -14.5844   36.1955 C   0  0  0  0  0  0  0  0  0  0  0  0
   34.4238  -15.3921   36.1447 N   0  0  0  0  0  0  0  0  0  0  0  0
   32.3040  -12.3569   36.5302 C   0  0  0  0  0  0  0  0  0  0  0  0
   31.9679  -11.7484   37.8421 C   0  0  0  0  0  0  0  0  0  0  0  0
   32.9975  -10.6956   38.2248 C   0  0  0  0  0  0  0  0  0  0  0  0
   32.5775   -9.5639   37.3076 C   0  0  0  0  0  0  0  0  0  0  0  0
   31.1133   -9.7985   37.1670 C   0  0  0  0  0  0  0  0  0  0  0  0
   30.7734  -11.0226   37.6852 O   0  0  0  0  0  0  0  0  0  0  0  0
   31.7425  -12.6972   38.9520 C   0  0  0  0  0  0  0  0  0  0  0  0
   32.5675  -12.7862   39.9276 O   0  0  0  0  0  0  0  0  0  0  0  0
   30.6591  -13.5552   39.0450 O   0  0  0  0  0  0  0  0  0  0  0  0
   30.2051  -13.6344   39.9441 H   0  0  0  0  0  0  0  0  0  0  0  0
   36.9773  -17.0114   36.9887 C   0  0  0  0  0  0  0  0  0  0  0  0
   37.4074  -18.0824   35.9967 C   0  0  0  0  0  0  0  0  0  0  0  0
   40.2550  -19.4214   35.7494 C   0  0  0  0  0  0  0  0  0  0  0  0
   39.1670  -19.8080   36.6856 C   0  0  0  0  0  0  0  0  0  0  0  0
   39.2035  -20.7696   37.5633 O   0  0  0  0  0  0  0  0  0  0  0  0
   38.0864  -20.8498   38.2295 C   0  0  0  0  0  0  0  0  0  0  0  0
   37.2816  -19.8854   37.7563 N   0  0  0  0  0  0  0  0  0  0  0  0
   37.9181  -19.2069   36.7863 C   0  0  0  0  0  0  0  0  0  0  0  0
   37.7585  -21.7962   39.2853 C   0  0  0  0  0  0  0  0  0  0  0  0
   38.1975  -21.6758   40.5856 C   0  0  0  0  0  0  0  0  0  0  0  0
   37.8664  -22.5902   41.5647 C   0  0  0  0  0  0  0  0  0  0  0  0
   37.0702  -23.6782   41.2750 C   0  0  0  0  0  0  0  0  0  0  0  0
   36.6098  -23.8317   39.9767 C   0  0  0  0  0  0  0  0  0  0  0  0
   35.5892  -25.2045   39.5546 Cl  0  0  0  0  0  0  0  0  0  0  0  0
   36.9526  -22.9071   39.0152 C   0  0  0  0  0  0  0  0  0  0  0  0
 20 21  1  0  0  0
 21 22  1  0  0  0
 22 23  1  0  0  0
 23 26  1  0  0  0
 26 27  2  0  0  0
 27 28  1  0  0  0
 28 29  2  0  0  0
 29 30  1  0  0  0
 30 31  1  0  0  0
 30 32  2  0  0  0
 23 24  2  0  0  0
 24 25  1  0  0  0
 25 19  1  0  0  0
 19 18  1  0  0  0
 18  1  1  0  0  0
  1  2  1  0  0  0
  2  3  2  0  0  0
  3  4  1  0  0  0
  4  5  2  0  0  0
  5  8  1  0  0  0
  8  9  1  0  0  0
  9 14  1  0  0  0
 14 15  2  0  0  0
 14 16  1  0  0  0
  9 10  1  0  0  0
 10 11  1  0  0  0
 11 12  1  0  0  0
 12 13  1  0  0  0
  5  6  1  0  0  0
  6  7  2  0  0  0
 25 21  2  0  0  0
  7  2  1  0  0  0
 32 26  1  0  0  0
 13  9  1  0  0  0
 16 17  1  0  0  0
M  END
> <minimizedAffinity>
-6.10135

> <CNNscore>
0.3498917818

> <CNNaffinity>
5.3743891716

> <CNN_VS>
1.8804546595

> <CNNaffinity_variance>
0.0691845268

$$$$
[H]OC(=O)C1(C([H])([H])c2c([H])nc(OC([H])([H])C([H])([H])c3nc(-c4c([H])c([H])c([H])c(Cl)c4[H])oc3C([H])([H])[H])c([H])c2[H])OC([H])([H])C([H])([H])C1([H])[H]


 32 35  0  0  0  0  0  0  0  0999 V2000
   36.7539  -15.8497   36.2766 O   0  0  0  0  0  0  0  0  0  0  0  0
   35.6452  -15.0228   36.3290 C   0  0  0  0  0  0  0  0  0  0  0  0
   35.7782  -13.7352   36.8744 C   0  0  0  0  0  0  0  0  0  0  0  0
   34.6884  -12.8883   36.9395 C   0  0  0  0  0  0  0  0  0  0  0  0
   33.4447  -13.2686   36.4780 C   0  0  0  0  0  0  0  0  0  0  0  0
   33.3679  -14.5318   35.9570 C   0  0  0  0  0  0  0  0  0  0  0  0
   34.4294  -15.3473   35.8973 N   0  0  0  0  0  0  0  0  0  0  0  0
   32.2940  -12.3683   36.5453 C   0  0  0  0  0  0  0  0  0  0  0  0
   31.9733  -11.7618   37.8620 C   0  0  0  0  0  0  0  0  0  0  0  0
   33.0200  -10.7262   38.2450 C   0  0  0  0  0  0  0  0  0  0  0  0
   32.6122   -9.5837   37.3357 C   0  0  0  0  0  0  0  0  0  0  0  0
   31.1441   -9.7962   37.2013 C   0  0  0  0  0  0  0  0  0  0  0  0
   30.7888  -11.0178   37.7149 O   0  0  0  0  0  0  0  0  0  0  0  0
   31.7395  -12.7130   38.9682 C   0  0  0  0  0  0  0  0  0  0  0  0
   32.5579  -12.8053   39.9490 O   0  0  0  0  0  0  0  0  0  0  0  0
   30.6545  -13.5700   39.0519 O   0  0  0  0  0  0  0  0  0  0  0  0
   30.1944  -13.6508   39.9478 H   0  0  0  0  0  0  0  0  0  0  0  0
   36.7775  -17.1992   35.9252 C   0  0  0  0  0  0  0  0  0  0  0  0
   36.4391  -18.0390   37.1483 C   0  0  0  0  0  0  0  0  0  0  0  0
   36.0249  -20.6561   38.8635 C   0  0  0  0  0  0  0  0  0  0  0  0
   36.9937  -20.4630   37.7528 C   0  0  0  0  0  0  0  0  0  0  0  0
   37.8403  -21.3428   37.2996 O   0  0  0  0  0  0  0  0  0  0  0  0
   38.5494  -20.8608   36.3182 C   0  0  0  0  0  0  0  0  0  0  0  0
   38.1380  -19.5977   36.1252 N   0  0  0  0  0  0  0  0  0  0  0  0
   37.1632  -19.3052   37.0031 C   0  0  0  0  0  0  0  0  0  0  0  0
   39.5900  -21.5460   35.5662 C   0  0  0  0  0  0  0  0  0  0  0  0
   39.3445  -22.5662   34.6735 C   0  0  0  0  0  0  0  0  0  0  0  0
   40.3545  -23.1944   33.9737 C   0  0  0  0  0  0  0  0  0  0  0  0
   41.6706  -22.8195   34.1436 C   0  0  0  0  0  0  0  0  0  0  0  0
   41.9553  -21.7962   35.0340 C   0  0  0  0  0  0  0  0  0  0  0  0
   43.6206  -21.2793   35.2872 Cl  0  0  0  0  0  0  0  0  0  0  0  0
   40.9318  -21.1831   35.7220 C   0  0  0  0  0  0  0  0  0  0  0  0
 20 21  1  0  0  0
 21 22  1  0  0  0
 22 23  1  0  0  0
 23 26  1  0  0  0
 26 27  2  0  0  0
 27 28  1  0  0  0
 28 29  2  0  0  0
 29 30  1  0  0  0
 30 31  1  0  0  0
 30 32  2  0  0  0
 23 24  2  0  0  0
 24 25  1  0  0  0
 25 19  1  0  0  0
 19 18  1  0  0  0
 18  1  1  0  0  0
  1  2  1  0  0  0
  2  3  2  0  0  0
  3  4  1  0  0  0
  4  5  2  0  0  0
  5  8  1  0  0  0
  8  9  1  0  0  0
  9 14  1  0  0  0
 14 15  2  0  0  0
 14 16  1  0  0  0
  9 10  1  0  0  0
 10 11  1  0  0  0
 11 12  1  0  0  0
 12 13  1  0  0  0
  5  6  1  0  0  0
  6  7  2  0  0  0
 25 21  2  0  0  0
  7  2  1  0  0  0
 32 26  1  0  0  0
 13  9  1  0  0  0
 16 17  1  0  0  0
M  END
> <minimizedAffinity>
-6.40008

> <CNNscore>
0.3152902424

> <CNNaffinity>
5.4397606850

> <CNN_VS>
1.7151035070

> <CNNaffinity_variance>
0.1049811840

$$$$
[H]OC(=O)C1(C([H])([H])c2c([H])nc(OC([H])([H])C([H])([H])c3nc(-c4c([H])c([H])c([H])c(Cl)c4[H])oc3C([H])([H])[H])c([H])c2[H])OC([H])([H])C([H])([H])C1([H])[H]


 32 35  0  0  0  0  0  0  0  0999 V2000
   35.6260  -13.2097   36.7308 O   0  0  0  0  0  0  0  0  0  0  0  0
   34.3767  -12.6847   37.0123 C   0  0  0  0  0  0  0  0  0  0  0  0
   33.2316  -13.4067   36.6373 C   0  0  0  0  0  0  0  0  0  0  0  0
   31.9718  -12.9067   36.9057 C   0  0  0  0  0  0  0  0  0  0  0  0
   31.7917  -11.6963   37.5433 C   0  0  0  0  0  0  0  0  0  0  0  0
   32.9380  -11.0323   37.8871 C   0  0  0  0  0  0  0  0  0  0  0  0
   34.1563  -11.5238   37.6234 N   0  0  0  0  0  0  0  0  0  0  0  0
   30.4565  -11.1716   37.8290 C   0  0  0  0  0  0  0  0  0  0  0  0
   29.6627  -11.8525   38.8829 C   0  0  0  0  0  0  0  0  0  0  0  0
   28.9485  -10.8340   39.7589 C   0  0  0  0  0  0  0  0  0  0  0  0
   27.8266  -10.4191   38.8275 C   0  0  0  0  0  0  0  0  0  0  0  0
   27.6109  -11.6542   38.0235 C   0  0  0  0  0  0  0  0  0  0  0  0
   28.6213  -12.5544   38.2496 O   0  0  0  0  0  0  0  0  0  0  0  0
   30.3962  -12.8369   39.7051 C   0  0  0  0  0  0  0  0  0  0  0  0
   30.0974  -14.0819   39.6745 O   0  0  0  0  0  0  0  0  0  0  0  0
   31.4394  -12.5245   40.5611 O   0  0  0  0  0  0  0  0  0  0  0  0
   32.2496  -13.1279   40.5455 H   0  0  0  0  0  0  0  0  0  0  0  0
   35.9073  -14.3367   35.9588 C   0  0  0  0  0  0  0  0  0  0  0  0
   36.5829  -15.3837   36.8324 C   0  0  0  0  0  0  0  0  0  0  0  0
   38.1201  -18.1115   36.4341 C   0  0  0  0  0  0  0  0  0  0  0  0
   36.6583  -17.8834   36.2900 C   0  0  0  0  0  0  0  0  0  0  0  0
   35.7618  -18.7727   35.9713 O   0  0  0  0  0  0  0  0  0  0  0  0
   34.5678  -18.2521   35.9286 C   0  0  0  0  0  0  0  0  0  0  0  0
   34.6993  -16.9525   36.2376 N   0  0  0  0  0  0  0  0  0  0  0  0
   35.9937  -16.6766   36.4719 C   0  0  0  0  0  0  0  0  0  0  0  0
   33.3224  -18.9339   35.6094 C   0  0  0  0  0  0  0  0  0  0  0  0
   32.5226  -18.6057   34.5368 C   0  0  0  0  0  0  0  0  0  0  0  0
   31.3475  -19.2742   34.2597 C   0  0  0  0  0  0  0  0  0  0  0  0
   30.9208  -20.3137   35.0590 C   0  0  0  0  0  0  0  0  0  0  0  0
   31.7004  -20.6718   36.1476 C   0  0  0  0  0  0  0  0  0  0  0  0
   31.1999  -21.9932   37.2000 Cl  0  0  0  0  0  0  0  0  0  0  0  0
   32.8696  -19.9910   36.4055 C   0  0  0  0  0  0  0  0  0  0  0  0
 20 21  1  0  0  0
 21 22  1  0  0  0
 22 23  1  0  0  0
 23 26  1  0  0  0
 26 27  2  0  0  0
 27 28  1  0  0  0
 28 29  2  0  0  0
 29 30  1  0  0  0
 30 31  1  0  0  0
 30 32  2  0  0  0
 23 24  2  0  0  0
 24 25  1  0  0  0
 25 19  1  0  0  0
 19 18  1  0  0  0
 18  1  1  0  0  0
  1  2  1  0  0  0
  2  3  2  0  0  0
  3  4  1  0  0  0
  4  5  2  0  0  0
  5  8  1  0  0  0
  8  9  1  0  0  0
  9 14  1  0  0  0
 14 15  2  0  0  0
 14 16  1  0  0  0
  9 10  1  0  0  0
 10 11  1  0  0  0
 11 12  1  0  0  0
 12 13  1  0  0  0
  5  6  1  0  0  0
  6  7  2  0  0  0
 25 21  2  0  0  0
  7  2  1  0  0  0
 32 26  1  0  0  0
 13  9  1  0  0  0
 16 17  1  0  0  0
M  END
> <minimizedAffinity>
-7.48607

> <CNNscore>
0.3111657798

> <CNNaffinity>
5.9730353355

> <CNN_VS>
1.8586041927

> <CNNaffinity_variance>
0.0955384523

$$$$
[H]OC(=O)C1(C([H])([H])c2c([H])nc(OC([H])([H])C([H])([H])c3nc(-c4c([H])c([H])c([H])c(Cl)c4[H])oc3C([H])([H])[H])c([H])c2[H])OC([H])([H])C([H])([H])C1([H])[H]


 32 35  0  0  0  0  0  0  0  0999 V2000
   32.5254  -20.9507   33.9509 O   0  0  0  0  0  0  0  0  0  0  0  0
   31.4050  -21.3055   34.6819 C   0  0  0  0  0  0  0  0  0  0  0  0
   30.5006  -20.3053   35.0751 C   0  0  0  0  0  0  0  0  0  0  0  0
   29.3737  -20.6306   35.8056 C   0  0  0  0  0  0  0  0  0  0  0  0
   29.0967  -21.9318   36.1722 C   0  0  0  0  0  0  0  0  0  0  0  0
   30.0085  -22.8679   35.7656 C   0  0  0  0  0  0  0  0  0  0  0  0
   31.0990  -22.5445   35.0573 N   0  0  0  0  0  0  0  0  0  0  0  0
   27.9011  -22.2731   36.9426 C   0  0  0  0  0  0  0  0  0  0  0  0
   27.8849  -21.9085   38.3818 C   0  0  0  0  0  0  0  0  0  0  0  0
   26.9994  -22.8642   39.1675 C   0  0  0  0  0  0  0  0  0  0  0  0
   27.9030  -24.0801   39.2261 C   0  0  0  0  0  0  0  0  0  0  0  0
   29.2599  -23.4665   39.2005 C   0  0  0  0  0  0  0  0  0  0  0  0
   29.1751  -22.1314   38.8956 O   0  0  0  0  0  0  0  0  0  0  0  0
   27.5471  -20.5025   38.6851 C   0  0  0  0  0  0  0  0  0  0  0  0
   27.0806  -19.7220   37.7832 O   0  0  0  0  0  0  0  0  0  0  0  0
   27.6972  -19.9084   39.9273 O   0  0  0  0  0  0  0  0  0  0  0  0
   26.9411  -19.3253   40.2578 H   0  0  0  0  0  0  0  0  0  0  0  0
   33.0945  -19.6813   33.8518 C   0  0  0  0  0  0  0  0  0  0  0  0
   34.6020  -19.7956   34.0256 C   0  0  0  0  0  0  0  0  0  0  0  0
   35.7577  -20.4037   36.8992 C   0  0  0  0  0  0  0  0  0  0  0  0
   35.4907  -19.0648   36.3113 C   0  0  0  0  0  0  0  0  0  0  0  0
   35.6864  -17.9121   36.8852 O   0  0  0  0  0  0  0  0  0  0  0  0
   35.3518  -16.9262   36.1015 C   0  0  0  0  0  0  0  0  0  0  0  0
   34.9152  -17.4719   34.9554 N   0  0  0  0  0  0  0  0  0  0  0  0
   34.9845  -18.8113   35.0422 C   0  0  0  0  0  0  0  0  0  0  0  0
   35.4301  -15.5033   36.3964 C   0  0  0  0  0  0  0  0  0  0  0  0
   34.3694  -14.6341   36.2641 C   0  0  0  0  0  0  0  0  0  0  0  0
   34.4758  -13.2892   36.5545 C   0  0  0  0  0  0  0  0  0  0  0  0
   35.6677  -12.7539   36.9955 C   0  0  0  0  0  0  0  0  0  0  0  0
   36.7568  -13.5989   37.1405 C   0  0  0  0  0  0  0  0  0  0  0  0
   38.3022  -12.9649   37.7009 Cl  0  0  0  0  0  0  0  0  0  0  0  0
   36.6282  -14.9379   36.8449 C   0  0  0  0  0  0  0  0  0  0  0  0
 20 21  1  0  0  0
 21 22  1  0  0  0
 22 23  1  0  0  0
 23 26  1  0  0  0
 26 27  2  0  0  0
 27 28  1  0  0  0
 28 29  2  0  0  0
 29 30  1  0  0  0
 30 31  1  0  0  0
 30 32  2  0  0  0
 23 24  2  0  0  0
 24 25  1  0  0  0
 25 19  1  0  0  0
 19 18  1  0  0  0
 18  1  1  0  0  0
  1  2  1  0  0  0
  2  3  2  0  0  0
  3  4  1  0  0  0
  4  5  2  0  0  0
  5  8  1  0  0  0
  8  9  1  0  0  0
  9 14  1  0  0  0
 14 15  2  0  0  0
 14 16  1  0  0  0
  9 10  1  0  0  0
 10 11  1  0  0  0
 11 12  1  0  0  0
 12 13  1  0  0  0
  5  6  1  0  0  0
  6  7  2  0  0  0
 25 21  2  0  0  0
  7  2  1  0  0  0
 32 26  1  0  0  0
 13  9  1  0  0  0
 16 17  1  0  0  0
M  END
> <minimizedAffinity>
-6.98605

> <CNNscore>
0.3080317080

> <CNNaffinity>
5.1415491104

> <CNN_VS>
1.5837601423

> <CNNaffinity_variance>
0.2098278701

$$$$
[H]OC(=O)C([H])([H])c1c([H])c([H])c(Oc2c([H])c([H])c(C(=O)N([H])C([H])(C([H])([H])[H])C([H])([H])[H])c([H])c2N([H])S(=O)(=O)c2c([H])c([H])c(Cl)c([H])c2Cl)c(OC([H])([H])[H])c1[H]


 40 42  0  0  0  0  0  0  0  0999 V2000
   33.8252  -18.9026   35.1857 C   0  0  0  0  0  0  0  0  0  0  0  0
   33.2555  -17.6614   35.1000 C   0  0  0  0  0  0  0  0  0  0  0  0
   33.8486  -16.5500   35.6662 C   0  0  0  0  0  0  0  0  0  0  0  0
   35.0393  -16.6816   36.3343 C   0  0  0  0  0  0  0  0  0  0  0  0
   35.6038  -17.9373   36.4146 C   0  0  0  0  0  0  0  0  0  0  0  0
   35.0477  -19.0646   35.8669 C   0  0  0  0  0  0  0  0  0  0  0  0
   35.7048  -15.5245   36.9459 C   0  0  0  0  0  0  0  0  0  0  0  0
   36.4660  -15.7552   37.9359 O   0  0  0  0  0  0  0  0  0  0  0  0
   35.5110  -14.2258   36.4616 N   0  0  0  0  0  0  0  0  0  0  0  0
   34.9036  -14.0162   35.6622 H   0  0  0  0  0  0  0  0  0  0  0  0
   36.1959  -13.1167   37.1075 C   0  0  0  0  0  0  0  0  0  0  0  0
   37.6826  -13.3962   36.9699 C   0  0  0  0  0  0  0  0  0  0  0  0
   35.8066  -11.8185   36.4683 C   0  0  0  0  0  0  0  0  0  0  0  0
   35.6076  -20.3683   35.9508 N   0  0  0  0  0  0  0  0  0  0  0  0
   35.2703  -21.1122   35.2790 H   0  0  0  0  0  0  0  0  0  0  0  0
   36.8054  -20.7023   37.1292 S   0  0  0  0  0  0  0  0  0  0  0  0
   37.6689  -21.8974   36.7412 O   0  0  0  0  0  0  0  0  0  0  0  0
   37.7191  -19.4739   37.2251 O   0  0  0  0  0  0  0  0  0  0  0  0
   36.0627  -20.9563   38.6888 C   0  0  0  0  0  0  0  0  0  0  0  0
   34.7078  -20.8688   38.8315 C   0  0  0  0  0  0  0  0  0  0  0  0
   34.1892  -21.0615   40.1195 C   0  0  0  0  0  0  0  0  0  0  0  0
   34.9844  -21.3265   41.2029 C   0  0  0  0  0  0  0  0  0  0  0  0
   34.3158  -21.5629   42.7951 Cl  0  0  0  0  0  0  0  0  0  0  0  0
   36.3400  -21.4026   41.0014 C   0  0  0  0  0  0  0  0  0  0  0  0
   36.9030  -21.2245   39.7716 C   0  0  0  0  0  0  0  0  0  0  0  0
   38.6493  -21.3220   39.5084 Cl  0  0  0  0  0  0  0  0  0  0  0  0
   33.2344  -20.0140   34.6177 O   0  0  0  0  0  0  0  0  0  0  0  0
   32.0850  -21.8534   35.7010 C   0  0  0  0  0  0  0  0  0  0  0  0
   30.8782  -22.4124   36.0912 C   0  0  0  0  0  0  0  0  0  0  0  0
   29.6533  -21.8116   35.8509 C   0  0  0  0  0  0  0  0  0  0  0  0
   29.6593  -20.6002   35.1905 C   0  0  0  0  0  0  0  0  0  0  0  0
   30.8478  -20.0265   34.7930 C   0  0  0  0  0  0  0  0  0  0  0  0
   32.0855  -20.6416   35.0398 C   0  0  0  0  0  0  0  0  0  0  0  0
   33.2631  -23.7449   36.6651 C   0  0  0  0  0  0  0  0  0  0  0  0
   33.2908  -22.5044   35.9738 O   0  0  0  0  0  0  0  0  0  0  0  0
   28.3646  -22.4234   36.2758 C   0  0  0  0  0  0  0  0  0  0  0  0
   28.1343  -22.1632   37.7189 C   0  0  0  0  0  0  0  0  0  0  0  0
   28.3887  -21.0868   38.2943 O   0  0  0  0  0  0  0  0  0  0  0  0
   27.5912  -23.2181   38.4680 O   0  0  0  0  0  0  0  0  0  0  0  0
   26.7005  -23.6001   38.1902 H   0  0  0  0  0  0  0  0  0  0  0  0
 34 35  1  0  0  0
 35 28  1  0  0  0
 28 29  2  0  0  0
 29 30  1  0  0  0
 30 36  1  0  0  0
 36 37  1  0  0  0
 37 38  2  0  0  0
 37 39  1  0  0  0
 30 31  2  0  0  0
 31 32  1  0  0  0
 32 33  2  0  0  0
 33 27  1  0  0  0
 27  1  1  0  0  0
  1  2  2  0  0  0
  2  3  1  0  0  0
  3  4  2  0  0  0
  4  7  1  0  0  0
  7  8  2  0  0  0
  7  9  1  0  0  0
  9 11  1  0  0  0
 11 12  1  0  0  0
 11 13  1  0  0  0
  4  5  1  0  0  0
  5  6  2  0  0  0
  6 14  1  0  0  0
 14 16  1  0  0  0
 16 17  2  0  0  0
 16 18  2  0  0  0
 16 19  1  0  0  0
 19 20  2  0  0  0
 20 21  1  0  0  0
 21 22  2  0  0  0
 22 23  1  0  0  0
 22 24  1  0  0  0
 24 25  2  0  0  0
 25 26  1  0  0  0
 33 28  1  0  0  0
  6  1  1  0  0  0
 25 19  1  0  0  0
 39 40  1  0  0  0
  9 10  1  0  0  0
 14 15  1  0  0  0
M  END
> <minimizedAffinity>
-6.33337

> <CNNscore>
0.1988443136

> <CNNaffinity>
5.5719671249

> <CNN_VS>
1.1079540253

> <CNNaffinity_variance>
0.3141962886

$$$$
[H]OC(=O)C([H])([H])c1c([H])c([H])c(Oc2c([H])c([H])c(C(=O)N([H])C([H])(C([H])([H])[H])C([H])([H])[H])c([H])c2N([H])S(=O)(=O)c2c([H])c([H])c(Cl)c([H])c2Cl)c(OC([H])([H])[H])c1[H]


 40 42  0  0  0  0  0  0  0  0999 V2000
   37.2525  -18.5438   35.3630 C   0  0  0  0  0  0  0  0  0  0  0  0
   37.7087  -18.2278   34.1123 C   0  0  0  0  0  0  0  0  0  0  0  0
   39.0298  -18.4122   33.7535 C   0  0  0  0  0  0  0  0  0  0  0  0
   39.9163  -18.9244   34.6661 C   0  0  0  0  0  0  0  0  0  0  0  0
   39.4454  -19.2387   35.9236 C   0  0  0  0  0  0  0  0  0  0  0  0
   38.1432  -19.0710   36.3190 C   0  0  0  0  0  0  0  0  0  0  0  0
   41.3276  -19.1403   34.3232 C   0  0  0  0  0  0  0  0  0  0  0  0
   41.5754  -19.9935   33.4158 O   0  0  0  0  0  0  0  0  0  0  0  0
   42.3544  -18.4387   34.9652 N   0  0  0  0  0  0  0  0  0  0  0  0
   42.1778  -17.7434   35.6981 H   0  0  0  0  0  0  0  0  0  0  0  0
   43.7352  -18.6939   34.5850 C   0  0  0  0  0  0  0  0  0  0  0  0
   44.3844  -17.3332   34.4000 C   0  0  0  0  0  0  0  0  0  0  0  0
   44.4252  -19.5074   35.6374 C   0  0  0  0  0  0  0  0  0  0  0  0
   37.6425  -19.3765   37.6137 N   0  0  0  0  0  0  0  0  0  0  0  0
   37.3017  -18.5861   38.2281 H   0  0  0  0  0  0  0  0  0  0  0  0
   37.6040  -21.0047   38.1451 S   0  0  0  0  0  0  0  0  0  0  0  0
   37.3963  -21.9767   36.9890 O   0  0  0  0  0  0  0  0  0  0  0  0
   38.9629  -21.3180   38.7839 O   0  0  0  0  0  0  0  0  0  0  0  0
   36.3664  -21.2137   39.3588 C   0  0  0  0  0  0  0  0  0  0  0  0
   36.7069  -21.4294   40.6632 C   0  0  0  0  0  0  0  0  0  0  0  0
   35.6569  -21.6119   41.5738 C   0  0  0  0  0  0  0  0  0  0  0  0
   34.3402  -21.5804   41.1975 C   0  0  0  0  0  0  0  0  0  0  0  0
   33.0519  -21.8097   42.3488 Cl  0  0  0  0  0  0  0  0  0  0  0  0
   34.0558  -21.3605   39.8728 C   0  0  0  0  0  0  0  0  0  0  0  0
   35.0344  -21.1758   38.9404 C   0  0  0  0  0  0  0  0  0  0  0  0
   34.6715  -20.8922   37.2327 Cl  0  0  0  0  0  0  0  0  0  0  0  0
   35.9315  -18.3623   35.7220 O   0  0  0  0  0  0  0  0  0  0  0  0
   35.7399  -16.0827   36.5249 C   0  0  0  0  0  0  0  0  0  0  0  0
   34.9965  -14.9136   36.5625 C   0  0  0  0  0  0  0  0  0  0  0  0
   33.7801  -14.7692   35.9152 C   0  0  0  0  0  0  0  0  0  0  0  0
   33.3061  -15.8535   35.2059 C   0  0  0  0  0  0  0  0  0  0  0  0
   34.0288  -17.0260   35.1555 C   0  0  0  0  0  0  0  0  0  0  0  0
   35.2608  -17.1650   35.8145 C   0  0  0  0  0  0  0  0  0  0  0  0
   37.5122  -14.9971   37.7800 C   0  0  0  0  0  0  0  0  0  0  0  0
   36.9627  -16.1691   37.1952 O   0  0  0  0  0  0  0  0  0  0  0  0
   32.9922  -13.5073   35.9640 C   0  0  0  0  0  0  0  0  0  0  0  0
   33.0730  -12.9145   37.3224 C   0  0  0  0  0  0  0  0  0  0  0  0
   33.7951  -11.9461   37.6312 O   0  0  0  0  0  0  0  0  0  0  0  0
   32.2710  -13.5022   38.3125 O   0  0  0  0  0  0  0  0  0  0  0  0
   31.2737  -13.5366   38.1695 H   0  0  0  0  0  0  0  0  0  0  0  0
 34 35  1  0  0  0
 35 28  1  0  0  0
 28 29  2  0  0  0
 29 30  1  0  0  0
 30 36  1  0  0  0
 36 37  1  0  0  0
 37 38  2  0  0  0
 37 39  1  0  0  0
 30 31  2  0  0  0
 31 32  1  0  0  0
 32 33  2  0  0  0
 33 27  1  0  0  0
 27  1  1  0  0  0
  1  2  2  0  0  0
  2  3  1  0  0  0
  3  4  2  0  0  0
  4  7  1  0  0  0
  7  8  2  0  0  0
  7  9  1  0  0  0
  9 11  1  0  0  0
 11 12  1  0  0  0
 11 13  1  0  0  0
  4  5  1  0  0  0
  5  6  2  0  0  0
  6 14  1  0  0  0
 14 16  1  0  0  0
 16 17  2  0  0  0
 16 18  2  0  0  0
 16 19  1  0  0  0
 19 20  2  0  0  0
 20 21  1  0  0  0
 21 22  2  0  0  0
 22 23  1  0  0  0
 22 24  1  0  0  0
 24 25  2  0  0  0
 25 26  1  0  0  0
 33 28  1  0  0  0
  6  1  1  0  0  0
 25 19  1  0  0  0
 39 40  1  0  0  0
  9 10  1  0  0  0
 14 15  1  0  0  0
M  END
> <minimizedAffinity>
-5.80499

> <CNNscore>
0.1875138134

> <CNNaffinity>
5.5174026489

> <CNN_VS>
1.0345891714

> <CNNaffinity_variance>
0.1370518953

$$$$
[H]OC(=O)C([H])([H])c1c([H])c([H])c(Oc2c([H])c([H])c(C(=O)N([H])C([H])(C([H])([H])[H])C([H])([H])[H])c([H])c2N([H])S(=O)(=O)c2c([H])c([H])c(Cl)c([H])c2Cl)c(OC([H])([H])[H])c1[H]


 40 42  0  0  0  0  0  0  0  0999 V2000
   34.1190  -18.7537   35.2605 C   0  0  0  0  0  0  0  0  0  0  0  0
   33.2420  -17.7043   35.3071 C   0  0  0  0  0  0  0  0  0  0  0  0
   33.6405  -16.4425   35.7032 C   0  0  0  0  0  0  0  0  0  0  0  0
   34.9462  -16.2238   36.0617 C   0  0  0  0  0  0  0  0  0  0  0  0
   35.8208  -17.2889   36.0114 C   0  0  0  0  0  0  0  0  0  0  0  0
   35.4656  -18.5554   35.6242 C   0  0  0  0  0  0  0  0  0  0  0  0
   35.4111  -14.8967   36.4839 C   0  0  0  0  0  0  0  0  0  0  0  0
   36.6480  -14.7763   36.7451 O   0  0  0  0  0  0  0  0  0  0  0  0
   34.5333  -13.8122   36.5937 N   0  0  0  0  0  0  0  0  0  0  0  0
   33.5317  -13.8853   36.3852 H   0  0  0  0  0  0  0  0  0  0  0  0
   35.0496  -12.5198   37.0175 C   0  0  0  0  0  0  0  0  0  0  0  0
   35.6158  -11.8585   35.7728 C   0  0  0  0  0  0  0  0  0  0  0  0
   33.9610  -11.7017   37.6428 C   0  0  0  0  0  0  0  0  0  0  0  0
   36.3493  -19.6678   35.5788 N   0  0  0  0  0  0  0  0  0  0  0  0
   36.6515  -20.0406   34.6365 H   0  0  0  0  0  0  0  0  0  0  0  0
   36.8991  -20.3737   37.0397 S   0  0  0  0  0  0  0  0  0  0  0  0
   36.0417  -19.9599   38.2306 O   0  0  0  0  0  0  0  0  0  0  0  0
   36.7917  -21.8965   36.8900 O   0  0  0  0  0  0  0  0  0  0  0  0
   38.5749  -19.9665   37.3129 C   0  0  0  0  0  0  0  0  0  0  0  0
   39.2031  -19.0534   36.5158 C   0  0  0  0  0  0  0  0  0  0  0  0
   40.5552  -18.7980   36.7830 C   0  0  0  0  0  0  0  0  0  0  0  0
   41.2386  -19.4232   37.7921 C   0  0  0  0  0  0  0  0  0  0  0  0
   42.9202  -19.0884   38.1052 Cl  0  0  0  0  0  0  0  0  0  0  0  0
   40.5573  -20.3327   38.5619 C   0  0  0  0  0  0  0  0  0  0  0  0
   39.2412  -20.6228   38.3502 C   0  0  0  0  0  0  0  0  0  0  0  0
   38.3602  -21.7941   39.3403 Cl  0  0  0  0  0  0  0  0  0  0  0  0
   33.7224  -20.0150   34.8622 O   0  0  0  0  0  0  0  0  0  0  0  0
   32.4602  -21.7886   35.9295 C   0  0  0  0  0  0  0  0  0  0  0  0
   31.2197  -22.3494   36.1893 C   0  0  0  0  0  0  0  0  0  0  0  0
   30.0326  -21.8109   35.7202 C   0  0  0  0  0  0  0  0  0  0  0  0
   30.1134  -20.6621   34.9605 C   0  0  0  0  0  0  0  0  0  0  0  0
   31.3366  -20.0878   34.6894 C   0  0  0  0  0  0  0  0  0  0  0  0
   32.5357  -20.6396   35.1682 C   0  0  0  0  0  0  0  0  0  0  0  0
   33.6577  -23.7809   36.6306 C   0  0  0  0  0  0  0  0  0  0  0  0
   33.6244  -22.3748   36.4324 O   0  0  0  0  0  0  0  0  0  0  0  0
   28.7069  -22.4239   36.0072 C   0  0  0  0  0  0  0  0  0  0  0  0
   28.2558  -22.0365   37.3672 C   0  0  0  0  0  0  0  0  0  0  0  0
   28.5344  -20.9570   37.9255 O   0  0  0  0  0  0  0  0  0  0  0  0
   27.4609  -22.9670   38.0537 O   0  0  0  0  0  0  0  0  0  0  0  0
   26.5940  -23.2652   37.6341 H   0  0  0  0  0  0  0  0  0  0  0  0
 34 35  1  0  0  0
 35 28  1  0  0  0
 28 29  2  0  0  0
 29 30  1  0  0  0
 30 36  1  0  0  0
 36 37  1  0  0  0
 37 38  2  0  0  0
 37 39  1  0  0  0
 30 31  2  0  0  0
 31 32  1  0  0  0
 32 33  2  0  0  0
 33 27  1  0  0  0
 27  1  1  0  0  0
  1  2  2  0  0  0
  2  3  1  0  0  0
  3  4  2  0  0  0
  4  7  1  0  0  0
  7  8  2  0  0  0
  7  9  1  0  0  0
  9 11  1  0  0  0
 11 12  1  0  0  0
 11 13  1  0  0  0
  4  5  1  0  0  0
  5  6  2  0  0  0
  6 14  1  0  0  0
 14 16  1  0  0  0
 16 17  2  0  0  0
 16 18  2  0  0  0
 16 19  1  0  0  0
 19 20  2  0  0  0
 20 21  1  0  0  0
 21 22  2  0  0  0
 22 23  1  0  0  0
 22 24  1  0  0  0
 24 25  2  0  0  0
 25 26  1  0  0  0
 33 28  1  0  0  0
  6  1  1  0  0  0
 25 19  1  0  0  0
 39 40  1  0  0  0
  9 10  1  0  0  0
 14 15  1  0  0  0
M  END
> <minimizedAffinity>
-6.68929

> <CNNscore>
0.0849383250

> <CNNaffinity>
5.5424389839

> <CNN_VS>
0.4707654715

> <CNNaffinity_variance>
0.3039491177

$$$$
[H]OC(=O)C([H])([H])c1c([H])c([H])c(Oc2c([H])c([H])c(C(=O)N([H])C([H])(C([H])([H])[H])C([H])([H])[H])c([H])c2N([H])S(=O)(=O)c2c([H])c([H])c(Cl)c([H])c2Cl)c(OC([H])([H])[H])c1[H]


 40 42  0  0  0  0  0  0  0  0999 V2000
   34.7021  -19.6240   35.3255 C   0  0  0  0  0  0  0  0  0  0  0  0
   34.1936  -20.8661   35.5919 C   0  0  0  0  0  0  0  0  0  0  0  0
   32.8405  -21.0717   35.7780 C   0  0  0  0  0  0  0  0  0  0  0  0
   31.9747  -20.0111   35.6964 C   0  0  0  0  0  0  0  0  0  0  0  0
   32.4986  -18.7639   35.4279 C   0  0  0  0  0  0  0  0  0  0  0  0
   33.8339  -18.5179   35.2369 C   0  0  0  0  0  0  0  0  0  0  0  0
   30.5291  -20.1880   35.8830 C   0  0  0  0  0  0  0  0  0  0  0  0
   29.7838  -19.2103   35.5650 O   0  0  0  0  0  0  0  0  0  0  0  0
   29.9947  -21.3790   36.3878 N   0  0  0  0  0  0  0  0  0  0  0  0
   30.5768  -22.1822   36.6483 H   0  0  0  0  0  0  0  0  0  0  0  0
   28.5542  -21.4981   36.5524 C   0  0  0  0  0  0  0  0  0  0  0  0
   28.1513  -22.7872   35.8573 C   0  0  0  0  0  0  0  0  0  0  0  0
   28.1934  -21.5073   38.0067 C   0  0  0  0  0  0  0  0  0  0  0  0
   34.3935  -17.2383   34.9727 N   0  0  0  0  0  0  0  0  0  0  0  0
   34.1872  -16.7733   34.0455 H   0  0  0  0  0  0  0  0  0  0  0  0
   35.3820  -16.4855   36.1521 S   0  0  0  0  0  0  0  0  0  0  0  0
   35.5259  -17.3414   37.4055 O   0  0  0  0  0  0  0  0  0  0  0  0
   36.7782  -16.3056   35.5431 O   0  0  0  0  0  0  0  0  0  0  0  0
   34.7500  -14.9073   36.5502 C   0  0  0  0  0  0  0  0  0  0  0  0
   33.5364  -14.5074   36.0695 C   0  0  0  0  0  0  0  0  0  0  0  0
   33.1086  -13.2175   36.4134 C   0  0  0  0  0  0  0  0  0  0  0  0
   33.8558  -12.3763   37.1947 C   0  0  0  0  0  0  0  0  0  0  0  0
   33.3021  -10.7765   37.6092 Cl  0  0  0  0  0  0  0  0  0  0  0  0
   35.0685  -12.8304   37.6499 C   0  0  0  0  0  0  0  0  0  0  0  0
   35.5379  -14.0754   37.3489 C   0  0  0  0  0  0  0  0  0  0  0  0
   37.0999  -14.6637   37.9338 Cl  0  0  0  0  0  0  0  0  0  0  0  0
   36.0544  -19.4176   35.1366 O   0  0  0  0  0  0  0  0  0  0  0  0
   38.2314  -20.4750   35.2793 C   0  0  0  0  0  0  0  0  0  0  0  0
   39.2163  -21.0222   36.0866 C   0  0  0  0  0  0  0  0  0  0  0  0
   39.1083  -21.0985   37.4657 C   0  0  0  0  0  0  0  0  0  0  0  0
   37.9574  -20.6002   38.0406 C   0  0  0  0  0  0  0  0  0  0  0  0
   36.9650  -20.0521   37.2568 C   0  0  0  0  0  0  0  0  0  0  0  0
   37.0814  -19.9785   35.8595 C   0  0  0  0  0  0  0  0  0  0  0  0
   39.4578  -19.6454   33.3551 C   0  0  0  0  0  0  0  0  0  0  0  0
   38.3972  -20.4221   33.8931 O   0  0  0  0  0  0  0  0  0  0  0  0
   40.1742  -21.6889   38.3206 C   0  0  0  0  0  0  0  0  0  0  0  0
   41.4264  -20.9044   38.1793 C   0  0  0  0  0  0  0  0  0  0  0  0
   41.5520  -19.7063   38.5007 O   0  0  0  0  0  0  0  0  0  0  0  0
   42.5334  -21.5801   37.6438 O   0  0  0  0  0  0  0  0  0  0  0  0
   42.8686  -22.4070   38.1132 H   0  0  0  0  0  0  0  0  0  0  0  0
 34 35  1  0  0  0
 35 28  1  0  0  0
 28 29  2  0  0  0
 29 30  1  0  0  0
 30 36  1  0  0  0
 36 37  1  0  0  0
 37 38  2  0  0  0
 37 39  1  0  0  0
 30 31  2  0  0  0
 31 32  1  0  0  0
 32 33  2  0  0  0
 33 27  1  0  0  0
 27  1  1  0  0  0
  1  2  2  0  0  0
  2  3  1  0  0  0
  3  4  2  0  0  0
  4  7  1  0  0  0
  7  8  2  0  0  0
  7  9  1  0  0  0
  9 11  1  0  0  0
 11 12  1  0  0  0
 11 13  1  0  0  0
  4  5  1  0  0  0
  5  6  2  0  0  0
  6 14  1  0  0  0
 14 16  1  0  0  0
 16 17  2  0  0  0
 16 18  2  0  0  0
 16 19  1  0  0  0
 19 20  2  0  0  0
 20 21  1  0  0  0
 21 22  2  0  0  0
 22 23  1  0  0  0
 22 24  1  0  0  0
 24 25  2  0  0  0
 25 26  1  0  0  0
 33 28  1  0  0  0
  6  1  1  0  0  0
 25 19  1  0  0  0
 39 40  1  0  0  0
  9 10  1  0  0  0
 14 15  1  0  0  0
M  END
> <minimizedAffinity>
-6.69946

> <CNNscore>
0.0828793943

> <CNNaffinity>
5.4917612076

> <CNN_VS>
0.4551538527

> <CNNaffinity_variance>
0.4598409534

$$$$
[H]OC(=O)C([H])([H])c1c([H])c([H])c(Oc2c([H])c([H])c(C(=O)N([H])C([H])(C([H])([H])[H])C([H])([H])[H])c([H])c2N([H])S(=O)(=O)c2c([H])c([H])c(Cl)c([H])c2Cl)c(OC([H])([H])[H])c1[H]


 40 42  0  0  0  0  0  0  0  0999 V2000
   33.5328  -19.8512   34.9216 C   0  0  0  0  0  0  0  0  0  0  0  0
   32.3938  -19.6302   34.1962 C   0  0  0  0  0  0  0  0  0  0  0  0
   31.2795  -20.4350   34.3316 C   0  0  0  0  0  0  0  0  0  0  0  0
   31.3037  -21.4860   35.2126 C   0  0  0  0  0  0  0  0  0  0  0  0
   32.4571  -21.6994   35.9378 C   0  0  0  0  0  0  0  0  0  0  0  0
   33.5834  -20.9244   35.8329 C   0  0  0  0  0  0  0  0  0  0  0  0
   30.1388  -22.3621   35.3898 C   0  0  0  0  0  0  0  0  0  0  0  0
   29.0170  -21.7974   35.5769 O   0  0  0  0  0  0  0  0  0  0  0  0
   30.2570  -23.7562   35.3540 N   0  0  0  0  0  0  0  0  0  0  0  0
   31.1517  -24.2339   35.2014 H   0  0  0  0  0  0  0  0  0  0  0  0
   29.0685  -24.5752   35.5364 C   0  0  0  0  0  0  0  0  0  0  0  0
   29.1968  -25.7345   34.5633 C   0  0  0  0  0  0  0  0  0  0  0  0
   28.9686  -25.0421   36.9567 C   0  0  0  0  0  0  0  0  0  0  0  0
   34.7851  -21.1367   36.5617 N   0  0  0  0  0  0  0  0  0  0  0  0
   35.7109  -20.9809   36.0749 H   0  0  0  0  0  0  0  0  0  0  0  0
   34.7067  -21.6371   38.1983 S   0  0  0  0  0  0  0  0  0  0  0  0
   33.6566  -20.8582   38.9826 O   0  0  0  0  0  0  0  0  0  0  0  0
   34.3030  -23.1167   38.2138 O   0  0  0  0  0  0  0  0  0  0  0  0
   36.2757  -21.4889   38.9500 C   0  0  0  0  0  0  0  0  0  0  0  0
   37.3805  -21.2168   38.1955 C   0  0  0  0  0  0  0  0  0  0  0  0
   38.6076  -21.1372   38.8685 C   0  0  0  0  0  0  0  0  0  0  0  0
   38.7203  -21.3207   40.2213 C   0  0  0  0  0  0  0  0  0  0  0  0
   40.2577  -21.2163   41.0358 Cl  0  0  0  0  0  0  0  0  0  0  0  0
   37.5767  -21.5924   40.9301 C   0  0  0  0  0  0  0  0  0  0  0  0
   36.3544  -21.6820   40.3310 C   0  0  0  0  0  0  0  0  0  0  0  0
   34.8788  -22.0318   41.2412 Cl  0  0  0  0  0  0  0  0  0  0  0  0
   34.6465  -19.0457   34.7889 O   0  0  0  0  0  0  0  0  0  0  0  0
   36.0246  -17.6780   36.2410 C   0  0  0  0  0  0  0  0  0  0  0  0
   36.1995  -16.4636   36.8855 C   0  0  0  0  0  0  0  0  0  0  0  0
   35.2940  -15.4194   36.7906 C   0  0  0  0  0  0  0  0  0  0  0  0
   34.1725  -15.6206   36.0125 C   0  0  0  0  0  0  0  0  0  0  0  0
   33.9783  -16.8207   35.3631 C   0  0  0  0  0  0  0  0  0  0  0  0
   34.9004  -17.8746   35.4643 C   0  0  0  0  0  0  0  0  0  0  0  0
   38.0179  -18.7894   35.4123 C   0  0  0  0  0  0  0  0  0  0  0  0
   36.9741  -18.6946   36.3710 O   0  0  0  0  0  0  0  0  0  0  0  0
   35.4946  -14.1199   37.4884 C   0  0  0  0  0  0  0  0  0  0  0  0
   36.9383  -13.7754   37.5076 C   0  0  0  0  0  0  0  0  0  0  0  0
   37.5463  -13.2182   36.5726 O   0  0  0  0  0  0  0  0  0  0  0  0
   37.6481  -14.1102   38.6708 O   0  0  0  0  0  0  0  0  0  0  0  0
   37.3407  -13.7282   39.5516 H   0  0  0  0  0  0  0  0  0  0  0  0
 34 35  1  0  0  0
 35 28  1  0  0  0
 28 29  2  0  0  0
 29 30  1  0  0  0
 30 36  1  0  0  0
 36 37  1  0  0  0
 37 38  2  0  0  0
 37 39  1  0  0  0
 30 31  2  0  0  0
 31 32  1  0  0  0
 32 33  2  0  0  0
 33 27  1  0  0  0
 27  1  1  0  0  0
  1  2  2  0  0  0
  2  3  1  0  0  0
  3  4  2  0  0  0
  4  7  1  0  0  0
  7  8  2  0  0  0
  7  9  1  0  0  0
  9 11  1  0  0  0
 11 12  1  0  0  0
 11 13  1  0  0  0
  4  5  1  0  0  0
  5  6  2  0  0  0
  6 14  1  0  0  0
 14 16  1  0  0  0
 16 17  2  0  0  0
 16 18  2  0  0  0
 16 19  1  0  0  0
 19 20  2  0  0  0
 20 21  1  0  0  0
 21 22  2  0  0  0
 22 23  1  0  0  0
 22 24  1  0  0  0
 24 25  2  0  0  0
 25 26  1  0  0  0
 33 28  1  0  0  0
  6  1  1  0  0  0
 25 19  1  0  0  0
 39 40  1  0  0  0
  9 10  1  0  0  0
 14 15  1  0  0  0
M  END
> <minimizedAffinity>
-6.03586

> <CNNscore>
0.0776704475

> <CNNaffinity>
5.3195447922

> <CNN_VS>
0.4131714106

> <CNNaffinity_variance>
0.5092669725

$$$$
[H]OC(=O)C([H])([H])c1c([H])c([H])c(Oc2c([H])c([H])c(C(=O)N([H])C([H])(C([H])([H])[H])C([H])([H])[H])c([H])c2N([H])S(=O)(=O)c2c([H])c([H])c(Cl)c([H])c2Cl)c(OC([H])([H])[H])c1[H]


 40 42  0  0  0  0  0  0  0  0999 V2000
   35.8203  -18.4972   36.6408 C   0  0  0  0  0  0  0  0  0  0  0  0
   34.4967  -18.8198   36.7683 C   0  0  0  0  0  0  0  0  0  0  0  0
   34.0880  -20.1070   37.0578 C   0  0  0  0  0  0  0  0  0  0  0  0
   35.0240  -21.0958   37.2235 C   0  0  0  0  0  0  0  0  0  0  0  0
   36.3549  -20.7591   37.0922 C   0  0  0  0  0  0  0  0  0  0  0  0
   36.8015  -19.4947   36.8059 C   0  0  0  0  0  0  0  0  0  0  0  0
   34.6314  -22.4755   37.5367 C   0  0  0  0  0  0  0  0  0  0  0  0
   35.5429  -23.3584   37.4881 O   0  0  0  0  0  0  0  0  0  0  0  0
   33.3137  -22.8050   37.8740 N   0  0  0  0  0  0  0  0  0  0  0  0
   32.5623  -22.1086   37.9223 H   0  0  0  0  0  0  0  0  0  0  0  0
   32.9817  -24.1892   38.1742 C   0  0  0  0  0  0  0  0  0  0  0  0
   31.9902  -24.1496   39.3242 C   0  0  0  0  0  0  0  0  0  0  0  0
   32.4118  -24.8642   36.9638 C   0  0  0  0  0  0  0  0  0  0  0  0
   38.1673  -19.1317   36.6537 N   0  0  0  0  0  0  0  0  0  0  0  0
   38.5211  -18.2626   37.1414 H   0  0  0  0  0  0  0  0  0  0  0  0
   39.2000  -20.1019   35.6909 S   0  0  0  0  0  0  0  0  0  0  0  0
   39.5460  -21.4194   36.3758 O   0  0  0  0  0  0  0  0  0  0  0  0
   38.4531  -20.4297   34.3920 O   0  0  0  0  0  0  0  0  0  0  0  0
   40.6493  -19.2182   35.2820 C   0  0  0  0  0  0  0  0  0  0  0  0
   40.9233  -18.9036   33.9821 C   0  0  0  0  0  0  0  0  0  0  0  0
   42.1179  -18.2142   33.7318 C   0  0  0  0  0  0  0  0  0  0  0  0
   42.9885  -17.8609   34.7286 C   0  0  0  0  0  0  0  0  0  0  0  0
   44.4681  -17.0032   34.3922 Cl  0  0  0  0  0  0  0  0  0  0  0  0
   42.6627  -18.2034   36.0173 C   0  0  0  0  0  0  0  0  0  0  0  0
   41.5146  -18.8739   36.3228 C   0  0  0  0  0  0  0  0  0  0  0  0
   41.0916  -19.3166   37.9822 Cl  0  0  0  0  0  0  0  0  0  0  0  0
   36.2302  -17.2101   36.3541 O   0  0  0  0  0  0  0  0  0  0  0  0
   35.8691  -14.9656   37.1964 C   0  0  0  0  0  0  0  0  0  0  0  0
   35.0459  -13.8515   37.2439 C   0  0  0  0  0  0  0  0  0  0  0  0
   33.8323  -13.7785   36.5797 C   0  0  0  0  0  0  0  0  0  0  0  0
   33.4453  -14.8787   35.8425 C   0  0  0  0  0  0  0  0  0  0  0  0
   34.2481  -15.9973   35.7819 C   0  0  0  0  0  0  0  0  0  0  0  0
   35.4768  -16.0640   36.4581 C   0  0  0  0  0  0  0  0  0  0  0  0
   37.9140  -13.8281   37.8442 C   0  0  0  0  0  0  0  0  0  0  0  0
   37.0847  -14.9806   37.8848 O   0  0  0  0  0  0  0  0  0  0  0  0
   32.9582  -12.5752   36.6394 C   0  0  0  0  0  0  0  0  0  0  0  0
   33.1827  -11.8515   37.9157 C   0  0  0  0  0  0  0  0  0  0  0  0
   33.6768  -10.7103   38.0059 O   0  0  0  0  0  0  0  0  0  0  0  0
   32.8043  -12.5189   39.0906 O   0  0  0  0  0  0  0  0  0  0  0  0
   31.8447  -12.8105   39.1934 H   0  0  0  0  0  0  0  0  0  0  0  0
 34 35  1  0  0  0
 35 28  1  0  0  0
 28 29  2  0  0  0
 29 30  1  0  0  0
 30 36  1  0  0  0
 36 37  1  0  0  0
 37 38  2  0  0  0
 37 39  1  0  0  0
 30 31  2  0  0  0
 31 32  1  0  0  0
 32 33  2  0  0  0
 33 27  1  0  0  0
 27  1  1  0  0  0
  1  2  2  0  0  0
  2  3  1  0  0  0
  3  4  2  0  0  0
  4  7  1  0  0  0
  7  8  2  0  0  0
  7  9  1  0  0  0
  9 11  1  0  0  0
 11 12  1  0  0  0
 11 13  1  0  0  0
  4  5  1  0  0  0
  5  6  2  0  0  0
  6 14  1  0  0  0
 14 16  1  0  0  0
 16 17  2  0  0  0
 16 18  2  0  0  0
 16 19  1  0  0  0
 19 20  2  0  0  0
 20 21  1  0  0  0
 21 22  2  0  0  0
 22 23  1  0  0  0
 22 24  1  0  0  0
 24 25  2  0  0  0
 25 26  1  0  0  0
 33 28  1  0  0  0
  6  1  1  0  0  0
 25 19  1  0  0  0
 39 40  1  0  0  0
  9 10  1  0  0  0
 14 15  1  0  0  0
M  END
> <minimizedAffinity>
-6.65877

> <CNNscore>
0.0755660608

> <CNNaffinity>
5.2697434425

> <CNN_VS>
0.3982137442

> <CNNaffinity_variance>
0.4850404263

$$$$
[H]OC(=O)C([H])([H])c1c([H])c([H])c(Oc2c([H])c([H])c(C(=O)N([H])C([H])(C([H])([H])[H])C([H])([H])[H])c([H])c2N([H])S(=O)(=O)c2c([H])c([H])c(Cl)c([H])c2Cl)c(OC([H])([H])[H])c1[H]


 40 42  0  0  0  0  0  0  0  0999 V2000
   35.1040  -20.4560   36.9748 C   0  0  0  0  0  0  0  0  0  0  0  0
   34.3271  -19.6511   36.1869 C   0  0  0  0  0  0  0  0  0  0  0  0
   34.6585  -18.3318   35.9475 C   0  0  0  0  0  0  0  0  0  0  0  0
   35.7930  -17.8038   36.5091 C   0  0  0  0  0  0  0  0  0  0  0  0
   36.5679  -18.6242   37.3018 C   0  0  0  0  0  0  0  0  0  0  0  0
   36.2743  -19.9376   37.5637 C   0  0  0  0  0  0  0  0  0  0  0  0
   36.1832  -16.4076   36.2757 C   0  0  0  0  0  0  0  0  0  0  0  0
   36.4963  -16.0885   35.0871 O   0  0  0  0  0  0  0  0  0  0  0  0
   36.2091  -15.4695   37.3140 N   0  0  0  0  0  0  0  0  0  0  0  0
   35.9576  -15.7038   38.2803 H   0  0  0  0  0  0  0  0  0  0  0  0
   36.6046  -14.0998   37.0246 C   0  0  0  0  0  0  0  0  0  0  0  0
   35.4117  -13.2284   37.3780 C   0  0  0  0  0  0  0  0  0  0  0  0
   37.8238  -13.7301   37.8134 C   0  0  0  0  0  0  0  0  0  0  0  0
   37.0531  -20.7943   38.3882 N   0  0  0  0  0  0  0  0  0  0  0  0
   36.7225  -20.9932   39.3728 H   0  0  0  0  0  0  0  0  0  0  0  0
   38.4983  -21.4786   37.7733 S   0  0  0  0  0  0  0  0  0  0  0  0
   38.5889  -22.9730   38.0615 O   0  0  0  0  0  0  0  0  0  0  0  0
   38.4898  -21.2935   36.2507 O   0  0  0  0  0  0  0  0  0  0  0  0
   39.8859  -20.6388   38.4199 C   0  0  0  0  0  0  0  0  0  0  0  0
   40.6781  -19.8830   37.6045 C   0  0  0  0  0  0  0  0  0  0  0  0
   41.7870  -19.2595   38.1933 C   0  0  0  0  0  0  0  0  0  0  0  0
   42.0846  -19.3873   39.5242 C   0  0  0  0  0  0  0  0  0  0  0  0
   43.4694  -18.6016   40.2336 Cl  0  0  0  0  0  0  0  0  0  0  0  0
   41.2540  -20.1600   40.2969 C   0  0  0  0  0  0  0  0  0  0  0  0
   40.1601  -20.7910   39.7809 C   0  0  0  0  0  0  0  0  0  0  0  0
   39.0877  -21.7873   40.7736 Cl  0  0  0  0  0  0  0  0  0  0  0  0
   34.7751  -21.7759   37.2126 O   0  0  0  0  0  0  0  0  0  0  0  0
   32.6452  -22.2345   38.2762 C   0  0  0  0  0  0  0  0  0  0  0  0
   31.3908  -22.8162   38.1815 C   0  0  0  0  0  0  0  0  0  0  0  0
   30.9534  -23.4920   37.0540 C   0  0  0  0  0  0  0  0  0  0  0  0
   31.8245  -23.5777   35.9876 C   0  0  0  0  0  0  0  0  0  0  0  0
   33.0770  -23.0069   36.0604 C   0  0  0  0  0  0  0  0  0  0  0  0
   33.5135  -22.3237   37.2067 C   0  0  0  0  0  0  0  0  0  0  0  0
   33.5523  -22.3108   40.5271 C   0  0  0  0  0  0  0  0  0  0  0  0
   33.0307  -21.5620   39.4386 O   0  0  0  0  0  0  0  0  0  0  0  0
   29.6030  -24.1120   36.9660 C   0  0  0  0  0  0  0  0  0  0  0  0
   28.9091  -23.6378   35.7425 C   0  0  0  0  0  0  0  0  0  0  0  0
   28.5668  -22.4571   35.5345 O   0  0  0  0  0  0  0  0  0  0  0  0
   28.6290  -24.6048   34.7650 O   0  0  0  0  0  0  0  0  0  0  0  0
   29.3944  -25.1282   34.3694 H   0  0  0  0  0  0  0  0  0  0  0  0
 34 35  1  0  0  0
 35 28  1  0  0  0
 28 29  2  0  0  0
 29 30  1  0  0  0
 30 36  1  0  0  0
 36 37  1  0  0  0
 37 38  2  0  0  0
 37 39  1  0  0  0
 30 31  2  0  0  0
 31 32  1  0  0  0
 32 33  2  0  0  0
 33 27  1  0  0  0
 27  1  1  0  0  0
  1  2  2  0  0  0
  2  3  1  0  0  0
  3  4  2  0  0  0
  4  7  1  0  0  0
  7  8  2  0  0  0
  7  9  1  0  0  0
  9 11  1  0  0  0
 11 12  1  0  0  0
 11 13  1  0  0  0
  4  5  1  0  0  0
  5  6  2  0  0  0
  6 14  1  0  0  0
 14 16  1  0  0  0
 16 17  2  0  0  0
 16 18  2  0  0  0
 16 19  1  0  0  0
 19 20  2  0  0  0
 20 21  1  0  0  0
 21 22  2  0  0  0
 22 23  1  0  0  0
 22 24  1  0  0  0
 24 25  2  0  0  0
 25 26  1  0  0  0
 33 28  1  0  0  0
  6  1  1  0  0  0
 25 19  1  0  0  0
 39 40  1  0  0  0
  9 10  1  0  0  0
 14 15  1  0  0  0
M  END
> <minimizedAffinity>
-5.97741

> <CNNscore>
0.0708480775

> <CNNaffinity>
5.1170401573

> <CNN_VS>
0.3625324667

> <CNNaffinity_variance>
0.4353069365

$$$$
[H]OC(=O)C([H])([H])c1c([H])c([H])c(Oc2c([H])c([H])c(C(=O)N([H])C([H])(C([H])([H])[H])C([H])([H])[H])c([H])c2N([H])S(=O)(=O)c2c([H])c([H])c(Cl)c([H])c2Cl)c(OC([H])([H])[H])c1[H]


 40 42  0  0  0  0  0  0  0  0999 V2000
   34.2804  -19.1484   35.2044 C   0  0  0  0  0  0  0  0  0  0  0  0
   33.3572  -18.1456   35.0841 C   0  0  0  0  0  0  0  0  0  0  0  0
   33.6081  -16.8688   35.5473 C   0  0  0  0  0  0  0  0  0  0  0  0
   34.8099  -16.5870   36.1452 C   0  0  0  0  0  0  0  0  0  0  0  0
   35.7324  -17.6056   36.2613 C   0  0  0  0  0  0  0  0  0  0  0  0
   35.5225  -18.8850   35.8151 C   0  0  0  0  0  0  0  0  0  0  0  0
   35.1177  -15.2417   36.6464 C   0  0  0  0  0  0  0  0  0  0  0  0
   34.1319  -14.5007   36.9492 O   0  0  0  0  0  0  0  0  0  0  0  0
   36.4366  -14.7944   36.7855 N   0  0  0  0  0  0  0  0  0  0  0  0
   37.2479  -15.3761   36.5502 H   0  0  0  0  0  0  0  0  0  0  0  0
   36.6824  -13.4510   37.2867 C   0  0  0  0  0  0  0  0  0  0  0  0
   38.1859  -13.3320   37.4664 C   0  0  0  0  0  0  0  0  0  0  0  0
   36.1483  -12.4300   36.3287 C   0  0  0  0  0  0  0  0  0  0  0  0
   36.4553  -19.9504   35.9378 N   0  0  0  0  0  0  0  0  0  0  0  0
   36.1902  -20.7962   36.5146 H   0  0  0  0  0  0  0  0  0  0  0  0
   37.9755  -19.8402   35.1557 S   0  0  0  0  0  0  0  0  0  0  0  0
   38.2246  -21.0220   34.2252 O   0  0  0  0  0  0  0  0  0  0  0  0
   37.9693  -18.5647   34.3038 O   0  0  0  0  0  0  0  0  0  0  0  0
   39.2533  -19.7038   36.3377 C   0  0  0  0  0  0  0  0  0  0  0  0
   40.1879  -18.7140   36.2341 C   0  0  0  0  0  0  0  0  0  0  0  0
   41.1959  -18.6853   37.2078 C   0  0  0  0  0  0  0  0  0  0  0  0
   41.2630  -19.5977   38.2273 C   0  0  0  0  0  0  0  0  0  0  0  0
   42.5263  -19.5409   39.4268 Cl  0  0  0  0  0  0  0  0  0  0  0  0
   40.2973  -20.5716   38.2823 C   0  0  0  0  0  0  0  0  0  0  0  0
   39.2917  -20.6506   37.3638 C   0  0  0  0  0  0  0  0  0  0  0  0
   38.0458  -21.9041   37.4317 Cl  0  0  0  0  0  0  0  0  0  0  0  0
   34.0317  -20.4246   34.7394 O   0  0  0  0  0  0  0  0  0  0  0  0
   33.3068  -22.0623   36.3736 C   0  0  0  0  0  0  0  0  0  0  0  0
   32.3159  -22.9338   36.7972 C   0  0  0  0  0  0  0  0  0  0  0  0
   31.1145  -23.0969   36.1269 C   0  0  0  0  0  0  0  0  0  0  0  0
   30.9171  -22.3460   34.9864 C   0  0  0  0  0  0  0  0  0  0  0  0
   31.8894  -21.4735   34.5469 C   0  0  0  0  0  0  0  0  0  0  0  0
   33.1048  -21.3138   35.2314 C   0  0  0  0  0  0  0  0  0  0  0  0
   34.4372  -21.6464   38.4818 C   0  0  0  0  0  0  0  0  0  0  0  0
   34.4981  -21.9372   37.0928 O   0  0  0  0  0  0  0  0  0  0  0  0
   30.0587  -24.0367   36.5934 C   0  0  0  0  0  0  0  0  0  0  0  0
   29.8182  -25.0772   35.5624 C   0  0  0  0  0  0  0  0  0  0  0  0
   28.7227  -25.2805   35.0030 O   0  0  0  0  0  0  0  0  0  0  0  0
   30.9163  -25.8760   35.2087 O   0  0  0  0  0  0  0  0  0  0  0  0
   31.7446  -25.4276   34.8493 H   0  0  0  0  0  0  0  0  0  0  0  0
 34 35  1  0  0  0
 35 28  1  0  0  0
 28 29  2  0  0  0
 29 30  1  0  0  0
 30 36  1  0  0  0
 36 37  1  0  0  0
 37 38  2  0  0  0
 37 39  1  0  0  0
 30 31  2  0  0  0
 31 32  1  0  0  0
 32 33  2  0  0  0
 33 27  1  0  0  0
 27  1  1  0  0  0
  1  2  2  0  0  0
  2  3  1  0  0  0
  3  4  2  0  0  0
  4  7  1  0  0  0
  7  8  2  0  0  0
  7  9  1  0  0  0
  9 11  1  0  0  0
 11 12  1  0  0  0
 11 13  1  0  0  0
  4  5  1  0  0  0
  5  6  2  0  0  0
  6 14  1  0  0  0
 14 16  1  0  0  0
 16 17  2  0  0  0
 16 18  2  0  0  0
 16 19  1  0  0  0
 19 20  2  0  0  0
 20 21  1  0  0  0
 21 22  2  0  0  0
 22 23  1  0  0  0
 22 24  1  0  0  0
 24 25  2  0  0  0
 25 26  1  0  0  0
 33 28  1  0  0  0
  6  1  1  0  0  0
 25 19  1  0  0  0
 39 40  1  0  0  0
  9 10  1  0  0  0
 14 15  1  0  0  0
M  END
> <minimizedAffinity>
-5.73066

> <CNNscore>
0.0671793222

> <CNNaffinity>
5.2764692307

> <CNN_VS>
0.3544696271

> <CNNaffinity_variance>
0.3953775465

$$$$
[H]OC(=O)C([H])([H])c1c([H])c([H])c(Oc2c([H])c([H])c(C(=O)N([H])C([H])(C([H])([H])[H])C([H])([H])[H])c([H])c2N([H])S(=O)(=O)c2c([H])c([H])c(Cl)c([H])c2Cl)c(OC([H])([H])[H])c1[H]


 40 42  0  0  0  0  0  0  0  0999 V2000
   35.0558  -17.6695   35.7787 C   0  0  0  0  0  0  0  0  0  0  0  0
   33.7688  -17.7844   35.3282 C   0  0  0  0  0  0  0  0  0  0  0  0
   33.0961  -18.9904   35.3531 C   0  0  0  0  0  0  0  0  0  0  0  0
   33.7241  -20.1086   35.8394 C   0  0  0  0  0  0  0  0  0  0  0  0
   35.0212  -19.9810   36.2902 C   0  0  0  0  0  0  0  0  0  0  0  0
   35.7233  -18.8033   36.2827 C   0  0  0  0  0  0  0  0  0  0  0  0
   33.0426  -21.4083   35.8876 C   0  0  0  0  0  0  0  0  0  0  0  0
   33.6517  -22.3562   36.4734 O   0  0  0  0  0  0  0  0  0  0  0  0
   31.7793  -21.5961   35.3154 N   0  0  0  0  0  0  0  0  0  0  0  0
   31.2677  -20.8448   34.8402 H   0  0  0  0  0  0  0  0  0  0  0  0
   31.1516  -22.9062   35.3927 C   0  0  0  0  0  0  0  0  0  0  0  0
   29.6673  -22.6560   35.5960 C   0  0  0  0  0  0  0  0  0  0  0  0
   31.4236  -23.6904   34.1451 C   0  0  0  0  0  0  0  0  0  0  0  0
   37.0642  -18.6552   36.7304 N   0  0  0  0  0  0  0  0  0  0  0  0
   37.2489  -18.1028   37.6131 H   0  0  0  0  0  0  0  0  0  0  0  0
   38.3399  -19.3683   35.8366 S   0  0  0  0  0  0  0  0  0  0  0  0
   38.0169  -20.8006   35.4261 O   0  0  0  0  0  0  0  0  0  0  0  0
   38.5290  -18.5441   34.5569 O   0  0  0  0  0  0  0  0  0  0  0  0
   39.8253  -19.3075   36.7523 C   0  0  0  0  0  0  0  0  0  0  0  0
   40.8835  -18.5702   36.3047 C   0  0  0  0  0  0  0  0  0  0  0  0
   42.0491  -18.5912   37.0831 C   0  0  0  0  0  0  0  0  0  0  0  0
   42.1480  -19.3112   38.2442 C   0  0  0  0  0  0  0  0  0  0  0  0
   43.6085  -19.3211   39.1953 Cl  0  0  0  0  0  0  0  0  0  0  0  0
   41.0532  -20.0349   38.6464 C   0  0  0  0  0  0  0  0  0  0  0  0
   39.8916  -20.0534   37.9313 C   0  0  0  0  0  0  0  0  0  0  0  0
   38.4790  -20.9847   38.4467 Cl  0  0  0  0  0  0  0  0  0  0  0  0
   35.7284  -16.4637   35.7568 O   0  0  0  0  0  0  0  0  0  0  0  0
   36.0552  -14.3315   36.8634 C   0  0  0  0  0  0  0  0  0  0  0  0
   35.4990  -13.1338   37.2844 C   0  0  0  0  0  0  0  0  0  0  0  0
   34.1687  -12.8046   37.0812 C   0  0  0  0  0  0  0  0  0  0  0  0
   33.3793  -13.7277   36.4268 C   0  0  0  0  0  0  0  0  0  0  0  0
   33.9117  -14.9252   36.0000 C   0  0  0  0  0  0  0  0  0  0  0  0
   35.2609  -15.2521   36.2098 C   0  0  0  0  0  0  0  0  0  0  0  0
   38.2241  -13.6045   37.6775 C   0  0  0  0  0  0  0  0  0  0  0  0
   37.4053  -14.6076   37.0935 O   0  0  0  0  0  0  0  0  0  0  0  0
   33.5846  -11.5142   37.5387 C   0  0  0  0  0  0  0  0  0  0  0  0
   32.3303  -11.7669   38.2911 C   0  0  0  0  0  0  0  0  0  0  0  0
   31.1903  -11.4568   37.8927 O   0  0  0  0  0  0  0  0  0  0  0  0
   32.4620  -12.4007   39.5361 O   0  0  0  0  0  0  0  0  0  0  0  0
   32.9022  -13.3069   39.5732 H   0  0  0  0  0  0  0  0  0  0  0  0
 34 35  1  0  0  0
 35 28  1  0  0  0
 28 29  2  0  0  0
 29 30  1  0  0  0
 30 36  1  0  0  0
 36 37  1  0  0  0
 37 38  2  0  0  0
 37 39  1  0  0  0
 30 31  2  0  0  0
 31 32  1  0  0  0
 32 33  2  0  0  0
 33 27  1  0  0  0
 27  1  1  0  0  0
  1  2  2  0  0  0
  2  3  1  0  0  0
  3  4  2  0  0  0
  4  7  1  0  0  0
  7  8  2  0  0  0
  7  9  1  0  0  0
  9 11  1  0  0  0
 11 12  1  0  0  0
 11 13  1  0  0  0
  4  5  1  0  0  0
  5  6  2  0  0  0
  6 14  1  0  0  0
 14 16  1  0  0  0
 16 17  2  0  0  0
 16 18  2  0  0  0
 16 19  1  0  0  0
 19 20  2  0  0  0
 20 21  1  0  0  0
 21 22  2  0  0  0
 22 23  1  0  0  0
 22 24  1  0  0  0
 24 25  2  0  0  0
 25 26  1  0  0  0
 33 28  1  0  0  0
  6  1  1  0  0  0
 25 19  1  0  0  0
 39 40  1  0  0  0
  9 10  1  0  0  0
 14 15  1  0  0  0
M  END
> <minimizedAffinity>
-7.80761

> <CNNscore>
0.0668547004

> <CNNaffinity>
5.7545342445

> <CNN_VS>
0.3847176731

> <CNNaffinity_variance>
0.3859742880

$$$$
[H]c1c([H])c([H])c(N([H])c2nc3c([H])nc(N([H])c4c([H])c([H])c(OC([H])([H])[H])c([H])c4[H])nc3n2C([H])(C([H])([H])[H])C([H])([H])[H])c(F)c1[H]


 31 34  0  0  0  0  0  0  0  0999 V2000
   31.7904  -18.9792   35.5480 C   0  0  0  0  0  0  0  0  0  0  0  0
   30.5018  -19.0409   35.2144 N   0  0  0  0  0  0  0  0  0  0  0  0
   29.6626  -20.0352   35.4984 C   0  0  0  0  0  0  0  0  0  0  0  0
   30.1485  -21.1171   36.2049 C   0  0  0  0  0  0  0  0  0  0  0  0
   29.6180  -22.2594   36.6544 N   0  0  0  0  0  0  0  0  0  0  0  0
   30.5686  -22.9573   37.2911 C   0  0  0  0  0  0  0  0  0  0  0  0
   31.7382  -22.2595   37.2566 N   0  0  0  0  0  0  0  0  0  0  0  0
   31.4694  -21.1181   36.5805 C   0  0  0  0  0  0  0  0  0  0  0  0
   32.2398  -20.0761   36.2519 N   0  0  0  0  0  0  0  0  0  0  0  0
   33.0252  -22.6373   37.8206 C   0  0  0  0  0  0  0  0  0  0  0  0
   33.4874  -21.6542   38.8786 C   0  0  0  0  0  0  0  0  0  0  0  0
   34.0642  -22.8740   36.7668 C   0  0  0  0  0  0  0  0  0  0  0  0
   32.6695  -17.9374   35.2504 N   0  0  0  0  0  0  0  0  0  0  0  0
   32.2434  -16.9793   35.0549 H   0  0  0  0  0  0  0  0  0  0  0  0
   36.8666  -18.3203   34.8432 C   0  0  0  0  0  0  0  0  0  0  0  0
   36.3265  -17.4807   35.7863 C   0  0  0  0  0  0  0  0  0  0  0  0
   34.9505  -17.3415   35.9470 C   0  0  0  0  0  0  0  0  0  0  0  0
   34.0660  -18.0277   35.1796 C   0  0  0  0  0  0  0  0  0  0  0  0
   34.6406  -18.8929   34.2083 C   0  0  0  0  0  0  0  0  0  0  0  0
   35.9790  -19.0169   34.0653 C   0  0  0  0  0  0  0  0  0  0  0  0
   38.7971  -18.4372   33.4018 C   0  0  0  0  0  0  0  0  0  0  0  0
   38.2391  -18.4487   34.6946 O   0  0  0  0  0  0  0  0  0  0  0  0
   30.4157  -24.2176   37.9098 N   0  0  0  0  0  0  0  0  0  0  0  0
   30.5449  -25.0569   37.2489 H   0  0  0  0  0  0  0  0  0  0  0  0
   30.1237  -24.5219   39.2450 C   0  0  0  0  0  0  0  0  0  0  0  0
   31.0522  -24.7866   40.2218 C   0  0  0  0  0  0  0  0  0  0  0  0
   30.6358  -25.0800   41.5299 C   0  0  0  0  0  0  0  0  0  0  0  0
   29.3027  -25.1106   41.8672 C   0  0  0  0  0  0  0  0  0  0  0  0
   28.3560  -24.8477   40.9010 C   0  0  0  0  0  0  0  0  0  0  0  0
   28.7753  -24.5673   39.6471 C   0  0  0  0  0  0  0  0  0  0  0  0
   27.8035  -24.3118   38.7158 F   0  0  0  0  0  0  0  0  0  0  0  0
 21 22  1  0  0  0
 22 15  1  0  0  0
 15 16  2  0  0  0
 16 17  1  0  0  0
 17 18  2  0  0  0
 18 13  1  0  0  0
 13  1  1  0  0  0
  1  2  2  0  0  0
  2  3  1  0  0  0
  3  4  2  0  0  0
  4  5  1  0  0  0
  5  6  2  0  0  0
  6 23  1  0  0  0
 23 25  1  0  0  0
 25 26  2  0  0  0
 26 27  1  0  0  0
 27 28  2  0  0  0
 28 29  1  0  0  0
 29 30  2  0  0  0
 30 31  1  0  0  0
  6  7  1  0  0  0
  7 10  1  0  0  0
 10 11  1  0  0  0
 10 12  1  0  0  0
  7  8  1  0  0  0
  8  9  2  0  0  0
 18 19  1  0  0  0
 19 20  2  0  0  0
 20 15  1  0  0  0
  9  1  1  0  0  0
  8  4  1  0  0  0
 30 25  1  0  0  0
 13 14  1  0  0  0
 23 24  1  0  0  0
M  END
> <minimizedAffinity>
-5.02431

> <CNNscore>
0.4071005285

> <CNNaffinity>
5.1948308945

> <CNN_VS>
2.1148183346

> <CNNaffinity_variance>
0.4017047882

$$$$
[H]c1c([H])c([H])c(N([H])c2nc3c([H])nc(N([H])c4c([H])c([H])c(OC([H])([H])[H])c([H])c4[H])nc3n2C([H])(C([H])([H])[H])C([H])([H])[H])c(F)c1[H]


 31 34  0  0  0  0  0  0  0  0999 V2000
   33.0323  -18.1767   35.2237 C   0  0  0  0  0  0  0  0  0  0  0  0
   32.0831  -18.7304   34.4700 N   0  0  0  0  0  0  0  0  0  0  0  0
   31.7758  -20.0251   34.4176 C   0  0  0  0  0  0  0  0  0  0  0  0
   32.4938  -20.8984   35.2099 C   0  0  0  0  0  0  0  0  0  0  0  0
   32.4670  -22.2199   35.4129 N   0  0  0  0  0  0  0  0  0  0  0  0
   33.4094  -22.5393   36.3106 C   0  0  0  0  0  0  0  0  0  0  0  0
   34.0619  -21.4084   36.6997 N   0  0  0  0  0  0  0  0  0  0  0  0
   33.4877  -20.3937   36.0119 C   0  0  0  0  0  0  0  0  0  0  0  0
   33.7277  -19.0785   36.0006 N   0  0  0  0  0  0  0  0  0  0  0  0
   35.1530  -21.2856   37.6543 C   0  0  0  0  0  0  0  0  0  0  0  0
   34.7416  -20.4964   38.8822 C   0  0  0  0  0  0  0  0  0  0  0  0
   36.4056  -20.7542   37.0261 C   0  0  0  0  0  0  0  0  0  0  0  0
   33.3539  -16.8201   35.2785 N   0  0  0  0  0  0  0  0  0  0  0  0
   32.7260  -16.1469   34.7397 H   0  0  0  0  0  0  0  0  0  0  0  0
   36.4704  -14.9361   37.4386 C   0  0  0  0  0  0  0  0  0  0  0  0
   36.6082  -16.2265   36.9894 C   0  0  0  0  0  0  0  0  0  0  0  0
   35.6028  -16.8674   36.2702 C   0  0  0  0  0  0  0  0  0  0  0  0
   34.4298  -16.2522   35.9738 C   0  0  0  0  0  0  0  0  0  0  0  0
   34.3027  -14.9167   36.4454 C   0  0  0  0  0  0  0  0  0  0  0  0
   35.2886  -14.3087   37.1420 C   0  0  0  0  0  0  0  0  0  0  0  0
   38.2478  -13.3080   37.5303 C   0  0  0  0  0  0  0  0  0  0  0  0
   37.4803  -14.3106   38.1537 O   0  0  0  0  0  0  0  0  0  0  0  0
   33.7051  -23.8318   36.7971 N   0  0  0  0  0  0  0  0  0  0  0  0
   34.4674  -24.3523   36.2439 H   0  0  0  0  0  0  0  0  0  0  0  0
   33.1519  -24.5197   37.8839 C   0  0  0  0  0  0  0  0  0  0  0  0
   31.8791  -25.0333   37.9355 C   0  0  0  0  0  0  0  0  0  0  0  0
   31.4360  -25.7061   39.0851 C   0  0  0  0  0  0  0  0  0  0  0  0
   32.2532  -25.8686   40.1795 C   0  0  0  0  0  0  0  0  0  0  0  0
   33.5337  -25.3603   40.1469 C   0  0  0  0  0  0  0  0  0  0  0  0
   33.9431  -24.7155   39.0318 C   0  0  0  0  0  0  0  0  0  0  0  0
   35.2223  -24.2251   39.0389 F   0  0  0  0  0  0  0  0  0  0  0  0
 21 22  1  0  0  0
 22 15  1  0  0  0
 15 16  2  0  0  0
 16 17  1  0  0  0
 17 18  2  0  0  0
 18 13  1  0  0  0
 13  1  1  0  0  0
  1  2  2  0  0  0
  2  3  1  0  0  0
  3  4  2  0  0  0
  4  5  1  0  0  0
  5  6  2  0  0  0
  6 23  1  0  0  0
 23 25  1  0  0  0
 25 26  2  0  0  0
 26 27  1  0  0  0
 27 28  2  0  0  0
 28 29  1  0  0  0
 29 30  2  0  0  0
 30 31  1  0  0  0
  6  7  1  0  0  0
  7 10  1  0  0  0
 10 11  1  0  0  0
 10 12  1  0  0  0
  7  8  1  0  0  0
  8  9  2  0  0  0
 18 19  1  0  0  0
 19 20  2  0  0  0
 20 15  1  0  0  0
  9  1  1  0  0  0
  8  4  1  0  0  0
 30 25  1  0  0  0
 13 14  1  0  0  0
 23 24  1  0  0  0
M  END
> <minimizedAffinity>
-5.99443

> <CNNscore>
0.3661153913

> <CNNaffinity>
5.3711900711

> <CNN_VS>
1.9664753675

> <CNNaffinity_variance>
0.1854947507

$$$$
[H]c1c([H])c([H])c(N([H])c2nc3c([H])nc(N([H])c4c([H])c([H])c(OC([H])([H])[H])c([H])c4[H])nc3n2C([H])(C([H])([H])[H])C([H])([H])[H])c(F)c1[H]


 31 34  0  0  0  0  0  0  0  0999 V2000
   33.2838  -18.7148   35.4963 C   0  0  0  0  0  0  0  0  0  0  0  0
   32.0345  -19.0432   35.1691 N   0  0  0  0  0  0  0  0  0  0  0  0
   31.3297  -20.0549   35.6724 C   0  0  0  0  0  0  0  0  0  0  0  0
   31.9269  -20.8551   36.6257 C   0  0  0  0  0  0  0  0  0  0  0  0
   31.5400  -21.9243   37.3296 N   0  0  0  0  0  0  0  0  0  0  0  0
   32.5464  -22.3036   38.1292 C   0  0  0  0  0  0  0  0  0  0  0  0
   33.6071  -21.4689   37.9443 N   0  0  0  0  0  0  0  0  0  0  0  0
   33.2148  -20.5722   37.0093 C   0  0  0  0  0  0  0  0  0  0  0  0
   33.8470  -19.5354   36.4502 N   0  0  0  0  0  0  0  0  0  0  0  0
   34.9049  -21.5083   38.6010 C   0  0  0  0  0  0  0  0  0  0  0  0
   35.1756  -20.2425   39.3908 C   0  0  0  0  0  0  0  0  0  0  0  0
   36.0165  -21.8389   37.6517 C   0  0  0  0  0  0  0  0  0  0  0  0
   34.0219  -17.6547   34.9690 N   0  0  0  0  0  0  0  0  0  0  0  0
   34.1359  -17.6181   33.9090 H   0  0  0  0  0  0  0  0  0  0  0  0
   36.0682  -14.6623   37.1568 C   0  0  0  0  0  0  0  0  0  0  0  0
   34.7831  -14.4563   36.7185 C   0  0  0  0  0  0  0  0  0  0  0  0
   34.0842  -15.4258   36.0041 C   0  0  0  0  0  0  0  0  0  0  0  0
   34.6349  -16.6285   35.7003 C   0  0  0  0  0  0  0  0  0  0  0  0
   35.9655  -16.8266   36.1613 C   0  0  0  0  0  0  0  0  0  0  0  0
   36.6300  -15.8751   36.8542 C   0  0  0  0  0  0  0  0  0  0  0  0
   38.1148  -13.4630   37.5940 C   0  0  0  0  0  0  0  0  0  0  0  0
   36.7519  -13.6875   37.8673 O   0  0  0  0  0  0  0  0  0  0  0  0
   32.5411  -23.3903   39.0313 N   0  0  0  0  0  0  0  0  0  0  0  0
   33.2552  -24.1623   38.8028 H   0  0  0  0  0  0  0  0  0  0  0  0
   31.7470  -23.5993   40.1654 C   0  0  0  0  0  0  0  0  0  0  0  0
   30.6094  -24.3676   40.2091 C   0  0  0  0  0  0  0  0  0  0  0  0
   29.8948  -24.5021   41.4099 C   0  0  0  0  0  0  0  0  0  0  0  0
   30.3078  -23.8764   42.5630 C   0  0  0  0  0  0  0  0  0  0  0  0
   31.4469  -23.1012   42.5392 C   0  0  0  0  0  0  0  0  0  0  0  0
   32.1220  -22.9831   41.3744 C   0  0  0  0  0  0  0  0  0  0  0  0
   33.2488  -22.2039   41.3922 F   0  0  0  0  0  0  0  0  0  0  0  0
 21 22  1  0  0  0
 22 15  1  0  0  0
 15 16  2  0  0  0
 16 17  1  0  0  0
 17 18  2  0  0  0
 18 13  1  0  0  0
 13  1  1  0  0  0
  1  2  2  0  0  0
  2  3  1  0  0  0
  3  4  2  0  0  0
  4  5  1  0  0  0
  5  6  2  0  0  0
  6 23  1  0  0  0
 23 25  1  0  0  0
 25 26  2  0  0  0
 26 27  1  0  0  0
 27 28  2  0  0  0
 28 29  1  0  0  0
 29 30  2  0  0  0
 30 31  1  0  0  0
  6  7  1  0  0  0
  7 10  1  0  0  0
 10 11  1  0  0  0
 10 12  1  0  0  0
  7  8  1  0  0  0
  8  9  2  0  0  0
 18 19  1  0  0  0
 19 20  2  0  0  0
 20 15  1  0  0  0
  9  1  1  0  0  0
  8  4  1  0  0  0
 30 25  1  0  0  0
 13 14  1  0  0  0
 23 24  1  0  0  0
M  END
> <minimizedAffinity>
-5.35950

> <CNNscore>
0.3294871449

> <CNNaffinity>
5.1608176231

> <CNN_VS>
1.7004231215

> <CNNaffinity_variance>
0.2785536647

$$$$
[H]c1c([H])c([H])c(N([H])c2nc3c([H])nc(N([H])c4c([H])c([H])c(OC([H])([H])[H])c([H])c4[H])nc3n2C([H])(C([H])([H])[H])C([H])([H])[H])c(F)c1[H]


 31 34  0  0  0  0  0  0  0  0999 V2000
   35.6437  -18.6284   37.2080 C   0  0  0  0  0  0  0  0  0  0  0  0
   35.8078  -19.5129   38.1912 N   0  0  0  0  0  0  0  0  0  0  0  0
   34.9797  -20.5094   38.4989 C   0  0  0  0  0  0  0  0  0  0  0  0
   33.8348  -20.6630   37.7430 C   0  0  0  0  0  0  0  0  0  0  0  0
   32.8079  -21.5194   37.7586 N   0  0  0  0  0  0  0  0  0  0  0  0
   31.9583  -21.1947   36.7743 C   0  0  0  0  0  0  0  0  0  0  0  0
   32.4382  -20.1090   36.1057 N   0  0  0  0  0  0  0  0  0  0  0  0
   33.6037  -19.7847   36.7130 C   0  0  0  0  0  0  0  0  0  0  0  0
   34.4905  -18.8129   36.4755 N   0  0  0  0  0  0  0  0  0  0  0  0
   31.8437  -19.4194   34.9708 C   0  0  0  0  0  0  0  0  0  0  0  0
   30.3408  -19.2819   35.1188 C   0  0  0  0  0  0  0  0  0  0  0  0
   32.2357  -20.0314   33.6602 C   0  0  0  0  0  0  0  0  0  0  0  0
   36.5115  -17.5845   36.8857 N   0  0  0  0  0  0  0  0  0  0  0  0
   37.5003  -17.8467   36.5835 H   0  0  0  0  0  0  0  0  0  0  0  0
   35.4104  -13.4960   36.8938 C   0  0  0  0  0  0  0  0  0  0  0  0
   36.4626  -13.9411   37.6558 C   0  0  0  0  0  0  0  0  0  0  0  0
   36.8510  -15.2782   37.6660 C   0  0  0  0  0  0  0  0  0  0  0  0
   36.2104  -16.2165   36.9235 C   0  0  0  0  0  0  0  0  0  0  0  0
   35.1237  -15.7400   36.1399 C   0  0  0  0  0  0  0  0  0  0  0  0
   34.7595  -14.4382   36.1409 C   0  0  0  0  0  0  0  0  0  0  0  0
   33.8143  -11.7880   37.4881 C   0  0  0  0  0  0  0  0  0  0  0  0
   35.0350  -12.1613   36.8937 O   0  0  0  0  0  0  0  0  0  0  0  0
   30.7498  -21.8519   36.4543 N   0  0  0  0  0  0  0  0  0  0  0  0
   29.8711  -21.4015   36.8820 H   0  0  0  0  0  0  0  0  0  0  0  0
   30.5398  -22.9917   35.6687 C   0  0  0  0  0  0  0  0  0  0  0  0
   31.3946  -23.4587   34.7003 C   0  0  0  0  0  0  0  0  0  0  0  0
   31.0737  -24.6173   33.9755 C   0  0  0  0  0  0  0  0  0  0  0  0
   29.9090  -25.3099   34.2110 C   0  0  0  0  0  0  0  0  0  0  0  0
   29.0386  -24.8571   35.1786 C   0  0  0  0  0  0  0  0  0  0  0  0
   29.3638  -23.7400   35.8664 C   0  0  0  0  0  0  0  0  0  0  0  0
   28.4726  -23.3225   36.8195 F   0  0  0  0  0  0  0  0  0  0  0  0
 21 22  1  0  0  0
 22 15  1  0  0  0
 15 16  2  0  0  0
 16 17  1  0  0  0
 17 18  2  0  0  0
 18 13  1  0  0  0
 13  1  1  0  0  0
  1  2  2  0  0  0
  2  3  1  0  0  0
  3  4  2  0  0  0
  4  5  1  0  0  0
  5  6  2  0  0  0
  6 23  1  0  0  0
 23 25  1  0  0  0
 25 26  2  0  0  0
 26 27  1  0  0  0
 27 28  2  0  0  0
 28 29  1  0  0  0
 29 30  2  0  0  0
 30 31  1  0  0  0
  6  7  1  0  0  0
  7 10  1  0  0  0
 10 11  1  0  0  0
 10 12  1  0  0  0
  7  8  1  0  0  0
  8  9  2  0  0  0
 18 19  1  0  0  0
 19 20  2  0  0  0
 20 15  1  0  0  0
  9  1  1  0  0  0
  8  4  1  0  0  0
 30 25  1  0  0  0
 13 14  1  0  0  0
 23 24  1  0  0  0
M  END
> <minimizedAffinity>
-7.03338

> <CNNscore>
0.2116045058

> <CNNaffinity>
5.3427801132

> <CNN_VS>
1.1305563450

> <CNNaffinity_variance>
0.4958389401

$$$$
[H]c1c([H])c([H])c(N([H])c2nc3c([H])nc(N([H])c4c([H])c([H])c(OC([H])([H])[H])c([H])c4[H])nc3n2C([H])(C([H])([H])[H])C([H])([H])[H])c(F)c1[H]


 31 34  0  0  0  0  0  0  0  0999 V2000
   33.1706  -18.1254   35.2718 C   0  0  0  0  0  0  0  0  0  0  0  0
   32.4951  -19.0244   34.5567 N   0  0  0  0  0  0  0  0  0  0  0  0
   32.4822  -20.3408   34.7582 C   0  0  0  0  0  0  0  0  0  0  0  0
   33.2315  -20.8483   35.8007 C   0  0  0  0  0  0  0  0  0  0  0  0
   33.4533  -22.0740   36.2873 N   0  0  0  0  0  0  0  0  0  0  0  0
   34.2842  -21.9803   37.3346 C   0  0  0  0  0  0  0  0  0  0  0  0
   34.6101  -20.6727   37.5348 N   0  0  0  0  0  0  0  0  0  0  0  0
   33.9526  -19.9760   36.5785 C   0  0  0  0  0  0  0  0  0  0  0  0
   33.9066  -18.6686   36.3031 N   0  0  0  0  0  0  0  0  0  0  0  0
   35.4813  -20.1114   38.5561 C   0  0  0  0  0  0  0  0  0  0  0  0
   36.9343  -20.4751   38.3196 C   0  0  0  0  0  0  0  0  0  0  0  0
   35.0262  -20.4475   39.9439 C   0  0  0  0  0  0  0  0  0  0  0  0
   33.1838  -16.7463   35.0605 N   0  0  0  0  0  0  0  0  0  0  0  0
   32.4768  -16.3514   34.3662 H   0  0  0  0  0  0  0  0  0  0  0  0
   35.9493  -14.0544   36.8023 C   0  0  0  0  0  0  0  0  0  0  0  0
   34.5976  -13.8313   36.8972 C   0  0  0  0  0  0  0  0  0  0  0  0
   33.6661  -14.7039   36.3408 C   0  0  0  0  0  0  0  0  0  0  0  0
   34.0426  -15.8236   35.6726 C   0  0  0  0  0  0  0  0  0  0  0  0
   35.4451  -16.0407   35.5833 C   0  0  0  0  0  0  0  0  0  0  0  0
   36.3364  -15.1838   36.1295 C   0  0  0  0  0  0  0  0  0  0  0  0
   38.1317  -13.6551   37.7488 C   0  0  0  0  0  0  0  0  0  0  0  0
   36.8653  -13.1766   37.3616 O   0  0  0  0  0  0  0  0  0  0  0  0
   34.7649  -23.0468   38.1260 N   0  0  0  0  0  0  0  0  0  0  0  0
   34.1925  -23.2326   39.0181 H   0  0  0  0  0  0  0  0  0  0  0  0
   35.8670  -23.8838   37.9135 C   0  0  0  0  0  0  0  0  0  0  0  0
   36.1660  -24.5211   36.7341 C   0  0  0  0  0  0  0  0  0  0  0  0
   37.3037  -25.3384   36.6428 C   0  0  0  0  0  0  0  0  0  0  0  0
   38.1415  -25.5225   37.7180 C   0  0  0  0  0  0  0  0  0  0  0  0
   37.8582  -24.8916   38.9099 C   0  0  0  0  0  0  0  0  0  0  0  0
   36.7587  -24.1087   38.9795 C   0  0  0  0  0  0  0  0  0  0  0  0
   36.5120  -23.4992   40.1815 F   0  0  0  0  0  0  0  0  0  0  0  0
 21 22  1  0  0  0
 22 15  1  0  0  0
 15 16  2  0  0  0
 16 17  1  0  0  0
 17 18  2  0  0  0
 18 13  1  0  0  0
 13  1  1  0  0  0
  1  2  2  0  0  0
  2  3  1  0  0  0
  3  4  2  0  0  0
  4  5  1  0  0  0
  5  6  2  0  0  0
  6 23  1  0  0  0
 23 25  1  0  0  0
 25 26  2  0  0  0
 26 27  1  0  0  0
 27 28  2  0  0  0
 28 29  1  0  0  0
 29 30  2  0  0  0
 30 31  1  0  0  0
  6  7  1  0  0  0
  7 10  1  0  0  0
 10 11  1  0  0  0
 10 12  1  0  0  0
  7  8  1  0  0  0
  8  9  2  0  0  0
 18 19  1  0  0  0
 19 20  2  0  0  0
 20 15  1  0  0  0
  9  1  1  0  0  0
  8  4  1  0  0  0
 30 25  1  0  0  0
 13 14  1  0  0  0
 23 24  1  0  0  0
M  END
> <minimizedAffinity>
-5.65392

> <CNNscore>
0.2016270012

> <CNNaffinity>
5.4084062576

> <CNN_VS>
1.0904806852

> <CNNaffinity_variance>
0.1307196319

$$$$
[H]c1c([H])c([H])c(N([H])c2nc3c([H])nc(N([H])c4c([H])c([H])c(OC([H])([H])[H])c([H])c4[H])nc3n2C([H])(C([H])([H])[H])C([H])([H])[H])c(F)c1[H]


 31 34  0  0  0  0  0  0  0  0999 V2000
   34.6223  -15.5114   36.5725 C   0  0  0  0  0  0  0  0  0  0  0  0
   35.7897  -15.2153   37.1430 N   0  0  0  0  0  0  0  0  0  0  0  0
   36.8674  -15.9967   37.1802 C   0  0  0  0  0  0  0  0  0  0  0  0
   36.7950  -17.2368   36.5779 C   0  0  0  0  0  0  0  0  0  0  0  0
   37.6474  -18.2553   36.4214 N   0  0  0  0  0  0  0  0  0  0  0  0
   37.0337  -19.2327   35.7402 C   0  0  0  0  0  0  0  0  0  0  0  0
   35.7606  -18.8462   35.4474 N   0  0  0  0  0  0  0  0  0  0  0  0
   35.6199  -17.6058   35.9708 C   0  0  0  0  0  0  0  0  0  0  0  0
   34.5874  -16.7565   35.9818 N   0  0  0  0  0  0  0  0  0  0  0  0
   34.7410  -19.5904   34.7238 C   0  0  0  0  0  0  0  0  0  0  0  0
   34.1523  -18.7795   33.5857 C   0  0  0  0  0  0  0  0  0  0  0  0
   33.6881  -20.1494   35.6321 C   0  0  0  0  0  0  0  0  0  0  0  0
   33.4933  -14.6925   36.5335 N   0  0  0  0  0  0  0  0  0  0  0  0
   32.5673  -15.1493   36.2660 H   0  0  0  0  0  0  0  0  0  0  0  0
   33.1954  -10.5770   37.4832 C   0  0  0  0  0  0  0  0  0  0  0  0
   34.3487  -11.0911   36.9433 C   0  0  0  0  0  0  0  0  0  0  0  0
   34.4712  -12.4385   36.6143 C   0  0  0  0  0  0  0  0  0  0  0  0
   33.4572  -13.3192   36.8100 C   0  0  0  0  0  0  0  0  0  0  0  0
   32.2700  -12.7716   37.3692 C   0  0  0  0  0  0  0  0  0  0  0  0
   32.1672  -11.4607   37.6826 C   0  0  0  0  0  0  0  0  0  0  0  0
   32.1716   -8.4261   37.1040 C   0  0  0  0  0  0  0  0  0  0  0  0
   33.0879   -9.2328   37.8057 O   0  0  0  0  0  0  0  0  0  0  0  0
   37.5892  -20.4770   35.3689 N   0  0  0  0  0  0  0  0  0  0  0  0
   36.9394  -21.3200   35.5274 H   0  0  0  0  0  0  0  0  0  0  0  0
   38.8501  -20.7615   34.8308 C   0  0  0  0  0  0  0  0  0  0  0  0
   39.7075  -21.7339   35.2845 C   0  0  0  0  0  0  0  0  0  0  0  0
   40.9504  -21.9255   34.6606 C   0  0  0  0  0  0  0  0  0  0  0  0
   41.3408  -21.1548   33.5904 C   0  0  0  0  0  0  0  0  0  0  0  0
   40.4944  -20.1741   33.1206 C   0  0  0  0  0  0  0  0  0  0  0  0
   39.3019  -20.0039   33.7336 C   0  0  0  0  0  0  0  0  0  0  0  0
   38.4894  -19.0189   33.2369 F   0  0  0  0  0  0  0  0  0  0  0  0
 21 22  1  0  0  0
 22 15  1  0  0  0
 15 16  2  0  0  0
 16 17  1  0  0  0
 17 18  2  0  0  0
 18 13  1  0  0  0
 13  1  1  0  0  0
  1  2  2  0  0  0
  2  3  1  0  0  0
  3  4  2  0  0  0
  4  5  1  0  0  0
  5  6  2  0  0  0
  6 23  1  0  0  0
 23 25  1  0  0  0
 25 26  2  0  0  0
 26 27  1  0  0  0
 27 28  2  0  0  0
 28 29  1  0  0  0
 29 30  2  0  0  0
 30 31  1  0  0  0
  6  7  1  0  0  0
  7 10  1  0  0  0
 10 11  1  0  0  0
 10 12  1  0  0  0
  7  8  1  0  0  0
  8  9  2  0  0  0
 18 19  1  0  0  0
 19 20  2  0  0  0
 20 15  1  0  0  0
  9  1  1  0  0  0
  8  4  1  0  0  0
 30 25  1  0  0  0
 13 14  1  0  0  0
 23 24  1  0  0  0
M  END
> <minimizedAffinity>
-6.69766

> <CNNscore>
0.1766763926

> <CNNaffinity>
5.7860174179

> <CNN_VS>
1.0222526789

> <CNNaffinity_variance>
0.0724034160

$$$$
[H]c1c([H])c([H])c(N([H])c2nc3c([H])nc(N([H])c4c([H])c([H])c(OC([H])([H])[H])c([H])c4[H])nc3n2C([H])(C([H])([H])[H])C([H])([H])[H])c(F)c1[H]


 31 34  0  0  0  0  0  0  0  0999 V2000
   35.2202  -17.8614   36.4464 C   0  0  0  0  0  0  0  0  0  0  0  0
   35.7450  -18.4121   37.5405 N   0  0  0  0  0  0  0  0  0  0  0  0
   35.3524  -19.5475   38.1151 C   0  0  0  0  0  0  0  0  0  0  0  0
   34.3040  -20.2397   37.5428 C   0  0  0  0  0  0  0  0  0  0  0  0
   33.6605  -21.3757   37.8318 N   0  0  0  0  0  0  0  0  0  0  0  0
   32.7013  -21.5748   36.9173 C   0  0  0  0  0  0  0  0  0  0  0  0
   32.7188  -20.5524   36.0170 N   0  0  0  0  0  0  0  0  0  0  0  0
   33.7167  -19.7274   36.4121 C   0  0  0  0  0  0  0  0  0  0  0  0
   34.1765  -18.5799   35.9032 N   0  0  0  0  0  0  0  0  0  0  0  0
   31.8566  -20.3601   34.8609 C   0  0  0  0  0  0  0  0  0  0  0  0
   32.6565  -20.1551   33.5890 C   0  0  0  0  0  0  0  0  0  0  0  0
   30.8410  -19.2797   35.0782 C   0  0  0  0  0  0  0  0  0  0  0  0
   35.6317  -16.6718   35.8444 N   0  0  0  0  0  0  0  0  0  0  0  0
   36.3221  -16.7472   35.0348 H   0  0  0  0  0  0  0  0  0  0  0  0
   34.6203  -12.7000   36.9072 C   0  0  0  0  0  0  0  0  0  0  0  0
   33.6423  -13.6217   36.6244 C   0  0  0  0  0  0  0  0  0  0  0  0
   33.9463  -14.9361   36.2800 C   0  0  0  0  0  0  0  0  0  0  0  0
   35.2269  -15.3794   36.2037 C   0  0  0  0  0  0  0  0  0  0  0  0
   36.2277  -14.4135   36.4996 C   0  0  0  0  0  0  0  0  0  0  0  0
   35.9157  -13.1412   36.8328 C   0  0  0  0  0  0  0  0  0  0  0  0
   33.0299  -11.1106   37.7804 C   0  0  0  0  0  0  0  0  0  0  0  0
   34.3025  -11.3943   37.2488 O   0  0  0  0  0  0  0  0  0  0  0  0
   31.7992  -22.6603   36.8660 N   0  0  0  0  0  0  0  0  0  0  0  0
   32.2664  -23.6227   36.7500 H   0  0  0  0  0  0  0  0  0  0  0  0
   30.4012  -22.6577   36.9442 C   0  0  0  0  0  0  0  0  0  0  0  0
   29.6674  -22.3171   38.0542 C   0  0  0  0  0  0  0  0  0  0  0  0
   28.2647  -22.3533   38.0107 C   0  0  0  0  0  0  0  0  0  0  0  0
   27.5929  -22.7261   36.8699 C   0  0  0  0  0  0  0  0  0  0  0  0
   28.3116  -23.0713   35.7459 C   0  0  0  0  0  0  0  0  0  0  0  0
   29.6612  -23.0307   35.8061 C   0  0  0  0  0  0  0  0  0  0  0  0
   30.3390  -23.3811   34.6682 F   0  0  0  0  0  0  0  0  0  0  0  0
 21 22  1  0  0  0
 22 15  1  0  0  0
 15 16  2  0  0  0
 16 17  1  0  0  0
 17 18  2  0  0  0
 18 13  1  0  0  0
 13  1  1  0  0  0
  1  2  2  0  0  0
  2  3  1  0  0  0
  3  4  2  0  0  0
  4  5  1  0  0  0
  5  6  2  0  0  0
  6 23  1  0  0  0
 23 25  1  0  0  0
 25 26  2  0  0  0
 26 27  1  0  0  0
 27 28  2  0  0  0
 28 29  1  0  0  0
 29 30  2  0  0  0
 30 31  1  0  0  0
  6  7  1  0  0  0
  7 10  1  0  0  0
 10 11  1  0  0  0
 10 12  1  0  0  0
  7  8  1  0  0  0
  8  9  2  0  0  0
 18 19  1  0  0  0
 19 20  2  0  0  0
 20 15  1  0  0  0
  9  1  1  0  0  0
  8  4  1  0  0  0
 30 25  1  0  0  0
 13 14  1  0  0  0
 23 24  1  0  0  0
M  END
> <minimizedAffinity>
-6.94620

> <CNNscore>
0.1615297794

> <CNNaffinity>
5.3546419144

> <CNN_VS>
0.8649341464

> <CNNaffinity_variance>
0.5146971941

$$$$
[H]c1c([H])c([H])c(N([H])c2nc3c([H])nc(N([H])c4c([H])c([H])c(OC([H])([H])[H])c([H])c4[H])nc3n2C([H])(C([H])([H])[H])C([H])([H])[H])c(F)c1[H]


 31 34  0  0  0  0  0  0  0  0999 V2000
   35.4401  -17.2989   36.3250 C   0  0  0  0  0  0  0  0  0  0  0  0
   36.2537  -17.9130   37.1832 N   0  0  0  0  0  0  0  0  0  0  0  0
   36.0581  -19.1098   37.7335 C   0  0  0  0  0  0  0  0  0  0  0  0
   34.9108  -19.8014   37.3998 C   0  0  0  0  0  0  0  0  0  0  0  0
   34.3964  -20.9871   37.7430 N   0  0  0  0  0  0  0  0  0  0  0  0
   33.2309  -21.1551   37.1031 C   0  0  0  0  0  0  0  0  0  0  0  0
   32.9804  -20.0616   36.3301 N   0  0  0  0  0  0  0  0  0  0  0  0
   34.0280  -19.2255   36.5196 C   0  0  0  0  0  0  0  0  0  0  0  0
   34.3059  -18.0188   36.0156 N   0  0  0  0  0  0  0  0  0  0  0  0
   31.8337  -19.8153   35.4690 C   0  0  0  0  0  0  0  0  0  0  0  0
   31.0486  -21.0842   35.1990 C   0  0  0  0  0  0  0  0  0  0  0  0
   32.2087  -19.0957   34.2090 C   0  0  0  0  0  0  0  0  0  0  0  0
   35.6454  -16.0450   35.7485 N   0  0  0  0  0  0  0  0  0  0  0  0
   36.2227  -16.0077   34.8524 H   0  0  0  0  0  0  0  0  0  0  0  0
   33.9992  -12.4431   37.2466 C   0  0  0  0  0  0  0  0  0  0  0  0
   35.3578  -12.5914   37.1123 C   0  0  0  0  0  0  0  0  0  0  0  0
   35.9254  -13.7616   36.6152 C   0  0  0  0  0  0  0  0  0  0  0  0
   35.1670  -14.8216   36.2364 C   0  0  0  0  0  0  0  0  0  0  0  0
   33.7626  -14.6523   36.3812 C   0  0  0  0  0  0  0  0  0  0  0  0
   33.2274  -13.5093   36.8652 C   0  0  0  0  0  0  0  0  0  0  0  0
   33.9350  -10.0321   37.2857 C   0  0  0  0  0  0  0  0  0  0  0  0
   33.4481  -11.2717   37.7431 O   0  0  0  0  0  0  0  0  0  0  0  0
   32.3745  -22.2745   37.1936 N   0  0  0  0  0  0  0  0  0  0  0  0
   31.9984  -22.6251   36.2483 H   0  0  0  0  0  0  0  0  0  0  0  0
   31.9534  -22.9813   38.3265 C   0  0  0  0  0  0  0  0  0  0  0  0
   32.7820  -23.5462   39.2650 C   0  0  0  0  0  0  0  0  0  0  0  0
   32.2396  -24.2332   40.3625 C   0  0  0  0  0  0  0  0  0  0  0  0
   30.8800  -24.3591   40.5279 C   0  0  0  0  0  0  0  0  0  0  0  0
   30.0323  -23.7992   39.5969 C   0  0  0  0  0  0  0  0  0  0  0  0
   30.5722  -23.1415   38.5468 C   0  0  0  0  0  0  0  0  0  0  0  0
   29.6961  -22.5993   37.6437 F   0  0  0  0  0  0  0  0  0  0  0  0
 21 22  1  0  0  0
 22 15  1  0  0  0
 15 16  2  0  0  0
 16 17  1  0  0  0
 17 18  2  0  0  0
 18 13  1  0  0  0
 13  1  1  0  0  0
  1  2  2  0  0  0
  2  3  1  0  0  0
  3  4  2  0  0  0
  4  5  1  0  0  0
  5  6  2  0  0  0
  6 23  1  0  0  0
 23 25  1  0  0  0
 25 26  2  0  0  0
 26 27  1  0  0  0
 27 28  2  0  0  0
 28 29  1  0  0  0
 29 30  2  0  0  0
 30 31  1  0  0  0
  6  7  1  0  0  0
  7 10  1  0  0  0
 10 11  1  0  0  0
 10 12  1  0  0  0
  7  8  1  0  0  0
  8  9  2  0  0  0
 18 19  1  0  0  0
 19 20  2  0  0  0
 20 15  1  0  0  0
  9  1  1  0  0  0
  8  4  1  0  0  0
 30 25  1  0  0  0
 13 14  1  0  0  0
 23 24  1  0  0  0
M  END
> <minimizedAffinity>
-6.02630

> <CNNscore>
0.1610335559

> <CNNaffinity>
5.2567930222

> <CNN_VS>
0.8465200663

> <CNNaffinity_variance>
0.3195091784

$$$$
[H]c1c([H])c([H])c(N([H])c2nc3c([H])nc(N([H])c4c([H])c([H])c(OC([H])([H])[H])c([H])c4[H])nc3n2C([H])(C([H])([H])[H])C([H])([H])[H])c(F)c1[H]


 31 34  0  0  0  0  0  0  0  0999 V2000
   36.0990  -18.0253   36.3741 C   0  0  0  0  0  0  0  0  0  0  0  0
   37.3693  -18.1114   35.9808 N   0  0  0  0  0  0  0  0  0  0  0  0
   38.2780  -18.9704   36.4391 C   0  0  0  0  0  0  0  0  0  0  0  0
   37.8932  -19.8681   37.4148 C   0  0  0  0  0  0  0  0  0  0  0  0
   38.5114  -20.8434   38.0891 N   0  0  0  0  0  0  0  0  0  0  0  0
   37.6378  -21.4055   38.9357 C   0  0  0  0  0  0  0  0  0  0  0  0
   36.4301  -20.7872   38.8122 N   0  0  0  0  0  0  0  0  0  0  0  0
   36.5966  -19.8338   37.8659 C   0  0  0  0  0  0  0  0  0  0  0  0
   35.7514  -18.9364   37.3485 N   0  0  0  0  0  0  0  0  0  0  0  0
   35.1990  -21.0710   39.5339 C   0  0  0  0  0  0  0  0  0  0  0  0
   34.0227  -21.2494   38.5937 C   0  0  0  0  0  0  0  0  0  0  0  0
   34.9228  -20.0662   40.6110 C   0  0  0  0  0  0  0  0  0  0  0  0
   35.1471  -17.1253   35.8937 N   0  0  0  0  0  0  0  0  0  0  0  0
   34.4571  -17.4865   35.1649 H   0  0  0  0  0  0  0  0  0  0  0  0
   34.5145  -13.0883   37.0031 C   0  0  0  0  0  0  0  0  0  0  0  0
   35.7061  -13.7133   37.2778 C   0  0  0  0  0  0  0  0  0  0  0  0
   35.9438  -15.0371   36.9174 C   0  0  0  0  0  0  0  0  0  0  0  0
   35.0101  -15.7839   36.2750 C   0  0  0  0  0  0  0  0  0  0  0  0
   33.7822  -15.1226   35.9975 C   0  0  0  0  0  0  0  0  0  0  0  0
   33.5675  -13.8365   36.3538 C   0  0  0  0  0  0  0  0  0  0  0  0
   33.0205  -11.3888   37.8383 C   0  0  0  0  0  0  0  0  0  0  0  0
   34.2920  -11.7694   37.3680 O   0  0  0  0  0  0  0  0  0  0  0  0
   37.8953  -22.4702   39.8272 N   0  0  0  0  0  0  0  0  0  0  0  0
   37.3132  -22.4444   40.7320 H   0  0  0  0  0  0  0  0  0  0  0  0
   38.7902  -23.5394   39.6987 C   0  0  0  0  0  0  0  0  0  0  0  0
   40.0869  -23.5501   40.1514 C   0  0  0  0  0  0  0  0  0  0  0  0
   40.8904  -24.6857   39.9631 C   0  0  0  0  0  0  0  0  0  0  0  0
   40.4087  -25.8065   39.3278 C   0  0  0  0  0  0  0  0  0  0  0  0
   39.1102  -25.8151   38.8665 C   0  0  0  0  0  0  0  0  0  0  0  0
   38.3513  -24.7129   39.0566 C   0  0  0  0  0  0  0  0  0  0  0  0
   37.0664  -24.7612   38.5836 F   0  0  0  0  0  0  0  0  0  0  0  0
 21 22  1  0  0  0
 22 15  1  0  0  0
 15 16  2  0  0  0
 16 17  1  0  0  0
 17 18  2  0  0  0
 18 13  1  0  0  0
 13  1  1  0  0  0
  1  2  2  0  0  0
  2  3  1  0  0  0
  3  4  2  0  0  0
  4  5  1  0  0  0
  5  6  2  0  0  0
  6 23  1  0  0  0
 23 25  1  0  0  0
 25 26  2  0  0  0
 26 27  1  0  0  0
 27 28  2  0  0  0
 28 29  1  0  0  0
 29 30  2  0  0  0
 30 31  1  0  0  0
  6  7  1  0  0  0
  7 10  1  0  0  0
 10 11  1  0  0  0
 10 12  1  0  0  0
  7  8  1  0  0  0
  8  9  2  0  0  0
 18 19  1  0  0  0
 19 20  2  0  0  0
 20 15  1  0  0  0
  9  1  1  0  0  0
  8  4  1  0  0  0
 30 25  1  0  0  0
 13 14  1  0  0  0
 23 24  1  0  0  0
M  END
> <minimizedAffinity>
-5.31795

> <CNNscore>
0.1597527415

> <CNNaffinity>
5.2080802917

> <CNN_VS>
0.8320050836

> <CNNaffinity_variance>
0.0820535421

$$$$
[H]c1nc(-c2c([H])c([H])c(OC([H])([H])C([H])([H])C([H])([H])N3C([H])([H])C([H])([H])C([H])(C([H])([H])c4c([H])nc([H])n4[H])C([H])([H])C3([H])[H])c([H])c2[H])nc([H])c1[H]


 29 32  0  0  0  0  0  0  0  0999 V2000
   36.3607  -18.3086   34.8779 C   0  0  0  0  0  0  0  0  0  0  0  0
   36.3727  -17.6024   36.2207 C   0  0  0  0  0  0  0  0  0  0  0  0
   36.6836  -16.2632   35.9873 O   0  0  0  0  0  0  0  0  0  0  0  0
   34.0332  -13.0828   36.8296 C   0  0  0  0  0  0  0  0  0  0  0  0
   35.3945  -12.9467   36.9937 C   0  0  0  0  0  0  0  0  0  0  0  0
   36.2712  -13.9940   36.7168 C   0  0  0  0  0  0  0  0  0  0  0  0
   35.8051  -15.2098   36.2663 C   0  0  0  0  0  0  0  0  0  0  0  0
   34.4423  -15.3408   36.1036 C   0  0  0  0  0  0  0  0  0  0  0  0
   33.5650  -14.2979   36.3790 C   0  0  0  0  0  0  0  0  0  0  0  0
   31.4534   -9.8710   37.6787 C   0  0  0  0  0  0  0  0  0  0  0  0
   32.8195   -9.6975   37.6415 C   0  0  0  0  0  0  0  0  0  0  0  0
   33.6077  -10.7514   37.3661 N   0  0  0  0  0  0  0  0  0  0  0  0
   33.1233  -11.9807   37.1223 C   0  0  0  0  0  0  0  0  0  0  0  0
   31.7946  -12.1441   37.1596 N   0  0  0  0  0  0  0  0  0  0  0  0
   30.9449  -11.1206   37.4317 C   0  0  0  0  0  0  0  0  0  0  0  0
   34.9253  -18.4320   34.4197 C   0  0  0  0  0  0  0  0  0  0  0  0
   34.3394  -19.7093   34.7821 N   0  0  0  0  0  0  0  0  0  0  0  0
   33.7229  -19.5429   36.0848 C   0  0  0  0  0  0  0  0  0  0  0  0
   32.2763  -19.0726   35.8868 C   0  0  0  0  0  0  0  0  0  0  0  0
   31.5099  -20.2814   35.4137 C   0  0  0  0  0  0  0  0  0  0  0  0
   32.2611  -20.9220   34.2963 C   0  0  0  0  0  0  0  0  0  0  0  0
   33.3683  -20.0439   33.7619 C   0  0  0  0  0  0  0  0  0  0  0  0
   30.0827  -19.9441   35.0522 C   0  0  0  0  0  0  0  0  0  0  0  0
   29.1873  -20.8669   35.7778 C   0  0  0  0  0  0  0  0  0  0  0  0
   28.9397  -22.1896   35.5243 C   0  0  0  0  0  0  0  0  0  0  0  0
   28.0672  -22.6445   36.4204 N   0  0  0  0  0  0  0  0  0  0  0  0
   27.7544  -21.6357   37.2402 C   0  0  0  0  0  0  0  0  0  0  0  0
   28.4392  -20.5562   36.8442 N   0  0  0  0  0  0  0  0  0  0  0  0
   28.3913  -19.6059   37.3084 H   0  0  0  0  0  0  0  0  0  0  0  0
 10 11  2  0  0  0
 11 12  1  0  0  0
 12 13  2  0  0  0
 13  4  1  0  0  0
  4  5  2  0  0  0
  5  6  1  0  0  0
  6  7  2  0  0  0
  7  3  1  0  0  0
  3  2  1  0  0  0
  2  1  1  0  0  0
  1 16  1  0  0  0
 16 17  1  0  0  0
 17 18  1  0  0  0
 18 19  1  0  0  0
 19 20  1  0  0  0
 20 23  1  0  0  0
 23 24  1  0  0  0
 24 25  2  0  0  0
 25 26  1  0  0  0
 26 27  2  0  0  0
 27 28  1  0  0  0
 20 21  1  0  0  0
 21 22  1  0  0  0
  7  8  1  0  0  0
  8  9  2  0  0  0
 13 14  1  0  0  0
 14 15  2  0  0  0
 15 10  1  0  0  0
  9  4  1  0  0  0
 22 17  1  0  0  0
 28 24  1  0  0  0
 28 29  1  0  0  0
M  END
> <minimizedAffinity>
-7.20205

> <CNNscore>
0.6103357077

> <CNNaffinity>
6.1543946266

> <CNN_VS>
3.7562468052

> <CNNaffinity_variance>
0.1346770972

$$$$
[H]c1nc(-c2c([H])c([H])c(OC([H])([H])C([H])([H])C([H])([H])N3C([H])([H])C([H])([H])C([H])(C([H])([H])c4c([H])nc([H])n4[H])C([H])([H])C3([H])[H])c([H])c2[H])nc([H])c1[H]


 29 32  0  0  0  0  0  0  0  0999 V2000
   35.9778  -17.0780   36.5945 C   0  0  0  0  0  0  0  0  0  0  0  0
   36.6548  -17.6639   35.3696 C   0  0  0  0  0  0  0  0  0  0  0  0
   35.6649  -17.8998   34.4161 O   0  0  0  0  0  0  0  0  0  0  0  0
   32.1097  -20.0285   35.2401 C   0  0  0  0  0  0  0  0  0  0  0  0
   33.3437  -20.5214   35.6049 C   0  0  0  0  0  0  0  0  0  0  0  0
   34.5181  -19.8216   35.3344 C   0  0  0  0  0  0  0  0  0  0  0  0
   34.4867  -18.6047   34.6889 C   0  0  0  0  0  0  0  0  0  0  0  0
   33.2497  -18.1159   34.3261 C   0  0  0  0  0  0  0  0  0  0  0  0
   32.0762  -18.8117   34.5945 C   0  0  0  0  0  0  0  0  0  0  0  0
   28.5580  -22.1159   36.0888 C   0  0  0  0  0  0  0  0  0  0  0  0
   28.6773  -20.7711   36.3626 C   0  0  0  0  0  0  0  0  0  0  0  0
   29.8307  -20.1425   36.0753 N   0  0  0  0  0  0  0  0  0  0  0  0
   30.8859  -20.7686   35.5276 C   0  0  0  0  0  0  0  0  0  0  0  0
   30.7647  -22.0759   35.2632 N   0  0  0  0  0  0  0  0  0  0  0  0
   29.6272  -22.7678   35.5295 C   0  0  0  0  0  0  0  0  0  0  0  0
   36.5637  -15.7080   36.8505 C   0  0  0  0  0  0  0  0  0  0  0  0
   35.9308  -14.6794   36.0458 N   0  0  0  0  0  0  0  0  0  0  0  0
   34.5009  -14.9197   36.0918 C   0  0  0  0  0  0  0  0  0  0  0  0
   33.9153  -14.1689   37.2945 C   0  0  0  0  0  0  0  0  0  0  0  0
   33.8994  -12.7128   36.9047 C   0  0  0  0  0  0  0  0  0  0  0  0
   35.2363  -12.3455   36.3562 C   0  0  0  0  0  0  0  0  0  0  0  0
   36.2841  -13.4002   36.6244 C   0  0  0  0  0  0  0  0  0  0  0  0
   33.4614  -11.8238   38.0446 C   0  0  0  0  0  0  0  0  0  0  0  0
   32.1236  -11.2851   37.7284 C   0  0  0  0  0  0  0  0  0  0  0  0
   30.9647  -11.9717   37.4823 C   0  0  0  0  0  0  0  0  0  0  0  0
   29.9896  -11.0989   37.2402 N   0  0  0  0  0  0  0  0  0  0  0  0
   30.5060   -9.8689   37.3277 C   0  0  0  0  0  0  0  0  0  0  0  0
   31.8054   -9.9884   37.6250 N   0  0  0  0  0  0  0  0  0  0  0  0
   32.4728   -9.1771   37.7567 H   0  0  0  0  0  0  0  0  0  0  0  0
 10 11  2  0  0  0
 11 12  1  0  0  0
 12 13  2  0  0  0
 13  4  1  0  0  0
  4  5  2  0  0  0
  5  6  1  0  0  0
  6  7  2  0  0  0
  7  3  1  0  0  0
  3  2  1  0  0  0
  2  1  1  0  0  0
  1 16  1  0  0  0
 16 17  1  0  0  0
 17 18  1  0  0  0
 18 19  1  0  0  0
 19 20  1  0  0  0
 20 23  1  0  0  0
 23 24  1  0  0  0
 24 25  2  0  0  0
 25 26  1  0  0  0
 26 27  2  0  0  0
 27 28  1  0  0  0
 20 21  1  0  0  0
 21 22  1  0  0  0
  7  8  1  0  0  0
  8  9  2  0  0  0
 13 14  1  0  0  0
 14 15  2  0  0  0
 15 10  1  0  0  0
  9  4  1  0  0  0
 22 17  1  0  0  0
 28 24  1  0  0  0
 28 29  1  0  0  0
M  END
> <minimizedAffinity>
-7.69712

> <CNNscore>
0.5477235317

> <CNNaffinity>
6.3067450523

> <CNN_VS>
3.4543526173

> <CNNaffinity_variance>
0.2900179029

$$$$
[H]c1nc(-c2c([H])c([H])c(OC([H])([H])C([H])([H])C([H])([H])N3C([H])([H])C([H])([H])C([H])(C([H])([H])c4c([H])nc([H])n4[H])C([H])([H])C3([H])[H])c([H])c2[H])nc([H])c1[H]


 29 32  0  0  0  0  0  0  0  0999 V2000
   36.4683  -17.6628   34.7841 C   0  0  0  0  0  0  0  0  0  0  0  0
   35.5011  -17.8550   35.9372 C   0  0  0  0  0  0  0  0  0  0  0  0
   35.8560  -16.9503   36.9372 O   0  0  0  0  0  0  0  0  0  0  0  0
   35.1266  -12.7970   36.6768 C   0  0  0  0  0  0  0  0  0  0  0  0
   36.3544  -13.2884   37.0640 C   0  0  0  0  0  0  0  0  0  0  0  0
   36.5978  -14.6578   37.1509 C   0  0  0  0  0  0  0  0  0  0  0  0
   35.6138  -15.5743   36.8508 C   0  0  0  0  0  0  0  0  0  0  0  0
   34.3873  -15.0776   36.4638 C   0  0  0  0  0  0  0  0  0  0  0  0
   34.1412  -13.7120   36.3762 C   0  0  0  0  0  0  0  0  0  0  0  0
   34.4580   -8.6546   36.3839 C   0  0  0  0  0  0  0  0  0  0  0  0
   35.3962   -9.2828   35.5948 C   0  0  0  0  0  0  0  0  0  0  0  0
   35.5779  -10.6091   35.7208 N   0  0  0  0  0  0  0  0  0  0  0  0
   34.8812  -11.3616   36.5889 C   0  0  0  0  0  0  0  0  0  0  0  0
   33.9703  -10.7461   37.3538 N   0  0  0  0  0  0  0  0  0  0  0  0
   33.7394   -9.4105   37.2746 C   0  0  0  0  0  0  0  0  0  0  0  0
   36.8853  -19.0266   34.2824 C   0  0  0  0  0  0  0  0  0  0  0  0
   38.3251  -19.1460   34.1445 N   0  0  0  0  0  0  0  0  0  0  0  0
   38.9182  -18.5683   35.3357 C   0  0  0  0  0  0  0  0  0  0  0  0
   39.0507  -19.6652   36.3998 C   0  0  0  0  0  0  0  0  0  0  0  0
   40.2016  -20.5327   35.9578 C   0  0  0  0  0  0  0  0  0  0  0  0
   40.0161  -20.8851   34.5210 C   0  0  0  0  0  0  0  0  0  0  0  0
   38.6311  -20.5552   34.0159 C   0  0  0  0  0  0  0  0  0  0  0  0
   40.3770  -21.7410   36.8470 C   0  0  0  0  0  0  0  0  0  0  0  0
   41.0510  -21.3123   38.0887 C   0  0  0  0  0  0  0  0  0  0  0  0
   42.2082  -20.5930   38.2256 C   0  0  0  0  0  0  0  0  0  0  0  0
   42.4609  -20.4254   39.5214 N   0  0  0  0  0  0  0  0  0  0  0  0
   41.4859  -21.0247   40.2126 C   0  0  0  0  0  0  0  0  0  0  0  0
   40.6305  -21.5629   39.3352 N   0  0  0  0  0  0  0  0  0  0  0  0
   39.7574  -22.1025   39.5949 H   0  0  0  0  0  0  0  0  0  0  0  0
 10 11  2  0  0  0
 11 12  1  0  0  0
 12 13  2  0  0  0
 13  4  1  0  0  0
  4  5  2  0  0  0
  5  6  1  0  0  0
  6  7  2  0  0  0
  7  3  1  0  0  0
  3  2  1  0  0  0
  2  1  1  0  0  0
  1 16  1  0  0  0
 16 17  1  0  0  0
 17 18  1  0  0  0
 18 19  1  0  0  0
 19 20  1  0  0  0
 20 23  1  0  0  0
 23 24  1  0  0  0
 24 25  2  0  0  0
 25 26  1  0  0  0
 26 27  2  0  0  0
 27 28  1  0  0  0
 20 21  1  0  0  0
 21 22  1  0  0  0
  7  8  1  0  0  0
  8  9  2  0  0  0
 13 14  1  0  0  0
 14 15  2  0  0  0
 15 10  1  0  0  0
  9  4  1  0  0  0
 22 17  1  0  0  0
 28 24  1  0  0  0
 28 29  1  0  0  0
M  END
> <minimizedAffinity>
-5.96478

> <CNNscore>
0.5414612889

> <CNNaffinity>
5.9728775024

> <CNN_VS>
3.2340819836

> <CNNaffinity_variance>
0.1116209030

$$$$
[H]c1nc(-c2c([H])c([H])c(OC([H])([H])C([H])([H])C([H])([H])N3C([H])([H])C([H])([H])C([H])(C([H])([H])c4c([H])nc([H])n4[H])C([H])([H])C3([H])[H])c([H])c2[H])nc([H])c1[H]


 29 32  0  0  0  0  0  0  0  0999 V2000
   36.7524  -17.2380   35.1896 C   0  0  0  0  0  0  0  0  0  0  0  0
   36.4402  -16.4701   36.4604 C   0  0  0  0  0  0  0  0  0  0  0  0
   36.4471  -15.1124   36.1421 O   0  0  0  0  0  0  0  0  0  0  0  0
   33.2397  -12.5068   37.0210 C   0  0  0  0  0  0  0  0  0  0  0  0
   33.0212  -13.7759   36.5307 C   0  0  0  0  0  0  0  0  0  0  0  0
   34.0772  -14.6375   36.2398 C   0  0  0  0  0  0  0  0  0  0  0  0
   35.3848  -14.2487   36.4334 C   0  0  0  0  0  0  0  0  0  0  0  0
   35.5979  -12.9781   36.9243 C   0  0  0  0  0  0  0  0  0  0  0  0
   34.5466  -12.1161   37.2155 C   0  0  0  0  0  0  0  0  0  0  0  0
   29.9994   -9.9704   37.8925 C   0  0  0  0  0  0  0  0  0  0  0  0
   29.8312  -11.3342   37.7958 C   0  0  0  0  0  0  0  0  0  0  0  0
   30.8942  -12.1084   37.5154 N   0  0  0  0  0  0  0  0  0  0  0  0
   32.1277  -11.6119   37.3225 C   0  0  0  0  0  0  0  0  0  0  0  0
   32.2859  -10.2854   37.4177 N   0  0  0  0  0  0  0  0  0  0  0  0
   31.2532   -9.4497   37.6980 C   0  0  0  0  0  0  0  0  0  0  0  0
   35.4674  -17.8456   34.6747 C   0  0  0  0  0  0  0  0  0  0  0  0
   34.5725  -18.2337   35.7492 N   0  0  0  0  0  0  0  0  0  0  0  0
   33.2191  -17.9851   35.2895 C   0  0  0  0  0  0  0  0  0  0  0  0
   32.7061  -19.2401   34.5719 C   0  0  0  0  0  0  0  0  0  0  0  0
   32.4083  -20.2436   35.6566 C   0  0  0  0  0  0  0  0  0  0  0  0
   33.5778  -20.3191   36.5784 C   0  0  0  0  0  0  0  0  0  0  0  0
   34.8040  -19.6372   36.0183 C   0  0  0  0  0  0  0  0  0  0  0  0
   32.0089  -21.5873   35.0939 C   0  0  0  0  0  0  0  0  0  0  0  0
   30.5945  -21.8348   35.4372 C   0  0  0  0  0  0  0  0  0  0  0  0
   29.6602  -20.9446   35.8953 C   0  0  0  0  0  0  0  0  0  0  0  0
   28.5080  -21.5849   36.0786 N   0  0  0  0  0  0  0  0  0  0  0  0
   28.6911  -22.8668   35.7455 C   0  0  0  0  0  0  0  0  0  0  0  0
   29.9630  -23.0130   35.3559 N   0  0  0  0  0  0  0  0  0  0  0  0
   30.3959  -23.9240   35.0340 H   0  0  0  0  0  0  0  0  0  0  0  0
 10 11  2  0  0  0
 11 12  1  0  0  0
 12 13  2  0  0  0
 13  4  1  0  0  0
  4  5  2  0  0  0
  5  6  1  0  0  0
  6  7  2  0  0  0
  7  3  1  0  0  0
  3  2  1  0  0  0
  2  1  1  0  0  0
  1 16  1  0  0  0
 16 17  1  0  0  0
 17 18  1  0  0  0
 18 19  1  0  0  0
 19 20  1  0  0  0
 20 23  1  0  0  0
 23 24  1  0  0  0
 24 25  2  0  0  0
 25 26  1  0  0  0
 26 27  2  0  0  0
 27 28  1  0  0  0
 20 21  1  0  0  0
 21 22  1  0  0  0
  7  8  1  0  0  0
  8  9  2  0  0  0
 13 14  1  0  0  0
 14 15  2  0  0  0
 15 10  1  0  0  0
  9  4  1  0  0  0
 22 17  1  0  0  0
 28 24  1  0  0  0
 28 29  1  0  0  0
M  END
> <minimizedAffinity>
-7.05822

> <CNNscore>
0.5260512829

> <CNNaffinity>
6.2048406601

> <CNN_VS>
3.2640643120

> <CNNaffinity_variance>
0.0369042344

$$$$
[H]c1nc(-c2c([H])c([H])c(OC([H])([H])C([H])([H])C([H])([H])N3C([H])([H])C([H])([H])C([H])(C([H])([H])c4c([H])nc([H])n4[H])C([H])([H])C3([H])[H])c([H])c2[H])nc([H])c1[H]


 29 32  0  0  0  0  0  0  0  0999 V2000
   36.6415  -19.2887   36.9053 C   0  0  0  0  0  0  0  0  0  0  0  0
   35.8728  -17.9988   37.1229 C   0  0  0  0  0  0  0  0  0  0  0  0
   36.7632  -16.9428   36.9317 O   0  0  0  0  0  0  0  0  0  0  0  0
   35.5523  -12.9028   36.6842 C   0  0  0  0  0  0  0  0  0  0  0  0
   34.7797  -13.9180   36.1634 C   0  0  0  0  0  0  0  0  0  0  0  0
   35.1766  -15.2515   36.2435 C   0  0  0  0  0  0  0  0  0  0  0  0
   36.3625  -15.6041   36.8499 C   0  0  0  0  0  0  0  0  0  0  0  0
   37.1317  -14.5847   37.3694 C   0  0  0  0  0  0  0  0  0  0  0  0
   36.7386  -13.2533   37.2912 C   0  0  0  0  0  0  0  0  0  0  0  0
   34.2922   -8.8956   36.4676 C   0  0  0  0  0  0  0  0  0  0  0  0
   33.7038   -9.7816   37.3431 C   0  0  0  0  0  0  0  0  0  0  0  0
   34.1374  -11.0538   37.3798 N   0  0  0  0  0  0  0  0  0  0  0  0
   35.1285  -11.5097   36.5954 C   0  0  0  0  0  0  0  0  0  0  0  0
   35.6973  -10.6443   35.7461 N   0  0  0  0  0  0  0  0  0  0  0  0
   35.3053   -9.3472   35.6609 C   0  0  0  0  0  0  0  0  0  0  0  0
   36.8243  -19.4868   35.4177 C   0  0  0  0  0  0  0  0  0  0  0  0
   38.0898  -18.9582   34.9432 N   0  0  0  0  0  0  0  0  0  0  0  0
   39.1132  -19.4009   35.8713 C   0  0  0  0  0  0  0  0  0  0  0  0
   39.6446  -20.7618   35.4038 C   0  0  0  0  0  0  0  0  0  0  0  0
   40.5160  -20.4762   34.2074 C   0  0  0  0  0  0  0  0  0  0  0  0
   39.7719  -19.5873   33.2697 C   0  0  0  0  0  0  0  0  0  0  0  0
   38.3039  -19.4819   33.6106 C   0  0  0  0  0  0  0  0  0  0  0  0
   41.0162  -21.7424   33.5531 C   0  0  0  0  0  0  0  0  0  0  0  0
   42.2378  -22.1801   34.2575 C   0  0  0  0  0  0  0  0  0  0  0  0
   42.5651  -23.4352   34.6965 C   0  0  0  0  0  0  0  0  0  0  0  0
   43.7598  -23.3896   35.2811 N   0  0  0  0  0  0  0  0  0  0  0  0
   44.1996  -22.1284   35.2225 C   0  0  0  0  0  0  0  0  0  0  0  0
   43.2690  -21.3966   34.5984 N   0  0  0  0  0  0  0  0  0  0  0  0
   43.3442  -20.3580   34.4073 H   0  0  0  0  0  0  0  0  0  0  0  0
 10 11  2  0  0  0
 11 12  1  0  0  0
 12 13  2  0  0  0
 13  4  1  0  0  0
  4  5  2  0  0  0
  5  6  1  0  0  0
  6  7  2  0  0  0
  7  3  1  0  0  0
  3  2  1  0  0  0
  2  1  1  0  0  0
  1 16  1  0  0  0
 16 17  1  0  0  0
 17 18  1  0  0  0
 18 19  1  0  0  0
 19 20  1  0  0  0
 20 23  1  0  0  0
 23 24  1  0  0  0
 24 25  2  0  0  0
 25 26  1  0  0  0
 26 27  2  0  0  0
 27 28  1  0  0  0
 20 21  1  0  0  0
 21 22  1  0  0  0
  7  8  1  0  0  0
  8  9  2  0  0  0
 13 14  1  0  0  0
 14 15  2  0  0  0
 15 10  1  0  0  0
  9  4  1  0  0  0
 22 17  1  0  0  0
 28 24  1  0  0  0
 28 29  1  0  0  0
M  END
> <minimizedAffinity>
-6.09633

> <CNNscore>
0.5190170407

> <CNNaffinity>
5.8457398415

> <CNN_VS>
3.0340385437

> <CNNaffinity_variance>
0.0945767015

$$$$
[H]c1nc(-c2c([H])c([H])c(OC([H])([H])C([H])([H])C([H])([H])N3C([H])([H])C([H])([H])C([H])(C([H])([H])c4c([H])nc([H])n4[H])C([H])([H])C3([H])[H])c([H])c2[H])nc([H])c1[H]


 29 32  0  0  0  0  0  0  0  0999 V2000
   35.6274  -19.2037   34.9472 C   0  0  0  0  0  0  0  0  0  0  0  0
   34.5897  -18.7344   33.9447 C   0  0  0  0  0  0  0  0  0  0  0  0
   33.8237  -19.8427   33.5844 O   0  0  0  0  0  0  0  0  0  0  0  0
   30.3916  -21.0828   35.7130 C   0  0  0  0  0  0  0  0  0  0  0  0
   30.4592  -19.8415   35.1184 C   0  0  0  0  0  0  0  0  0  0  0  0
   31.5900  -19.4298   34.4157 C   0  0  0  0  0  0  0  0  0  0  0  0
   32.6868  -20.2540   34.2898 C   0  0  0  0  0  0  0  0  0  0  0  0
   32.6141  -21.4948   34.8864 C   0  0  0  0  0  0  0  0  0  0  0  0
   31.4874  -21.9086   35.5882 C   0  0  0  0  0  0  0  0  0  0  0  0
   26.9629  -22.3454   37.7969 C   0  0  0  0  0  0  0  0  0  0  0  0
   27.4904  -23.0974   36.7703 C   0  0  0  0  0  0  0  0  0  0  0  0
   28.5879  -22.6566   36.1306 N   0  0  0  0  0  0  0  0  0  0  0  0
   29.2034  -21.5049   36.4468 C   0  0  0  0  0  0  0  0  0  0  0  0
   28.6866  -20.7776   37.4456 N   0  0  0  0  0  0  0  0  0  0  0  0
   27.5810  -21.1674   38.1305 C   0  0  0  0  0  0  0  0  0  0  0  0
   36.9875  -18.7457   34.4718 C   0  0  0  0  0  0  0  0  0  0  0  0
   38.0556  -19.6043   34.9493 N   0  0  0  0  0  0  0  0  0  0  0  0
   38.8697  -19.9534   33.8005 C   0  0  0  0  0  0  0  0  0  0  0  0
   39.9630  -18.8907   33.6323 C   0  0  0  0  0  0  0  0  0  0  0  0
   40.9676  -19.1549   34.7248 C   0  0  0  0  0  0  0  0  0  0  0  0
   40.2440  -19.3035   36.0200 C   0  0  0  0  0  0  0  0  0  0  0  0
   38.8040  -18.8543   35.9359 C   0  0  0  0  0  0  0  0  0  0  0  0
   42.0507  -18.1030   34.7678 C   0  0  0  0  0  0  0  0  0  0  0  0
   43.2192  -18.6654   35.4736 C   0  0  0  0  0  0  0  0  0  0  0  0
   43.7676  -18.2692   36.6642 C   0  0  0  0  0  0  0  0  0  0  0  0
   44.8124  -19.0468   36.9376 N   0  0  0  0  0  0  0  0  0  0  0  0
   44.9396  -19.9313   35.9430 C   0  0  0  0  0  0  0  0  0  0  0  0
   43.9671  -19.6943   35.0548 N   0  0  0  0  0  0  0  0  0  0  0  0
   43.8185  -20.2411   34.1604 H   0  0  0  0  0  0  0  0  0  0  0  0
 10 11  2  0  0  0
 11 12  1  0  0  0
 12 13  2  0  0  0
 13  4  1  0  0  0
  4  5  2  0  0  0
  5  6  1  0  0  0
  6  7  2  0  0  0
  7  3  1  0  0  0
  3  2  1  0  0  0
  2  1  1  0  0  0
  1 16  1  0  0  0
 16 17  1  0  0  0
 17 18  1  0  0  0
 18 19  1  0  0  0
 19 20  1  0  0  0
 20 23  1  0  0  0
 23 24  1  0  0  0
 24 25  2  0  0  0
 25 26  1  0  0  0
 26 27  2  0  0  0
 27 28  1  0  0  0
 20 21  1  0  0  0
 21 22  1  0  0  0
  7  8  1  0  0  0
  8  9  2  0  0  0
 13 14  1  0  0  0
 14 15  2  0  0  0
 15 10  1  0  0  0
  9  4  1  0  0  0
 22 17  1  0  0  0
 28 24  1  0  0  0
 28 29  1  0  0  0
M  END
> <minimizedAffinity>
-5.83001

> <CNNscore>
0.4991407990

> <CNNaffinity>
4.7829551697

> <CNN_VS>
2.3873679638

> <CNNaffinity_variance>
0.4882019162

$$$$
[H]c1nc(-c2c([H])c([H])c(OC([H])([H])C([H])([H])C([H])([H])N3C([H])([H])C([H])([H])C([H])(C([H])([H])c4c([H])nc([H])n4[H])C([H])([H])C3([H])[H])c([H])c2[H])nc([H])c1[H]


 29 32  0  0  0  0  0  0  0  0999 V2000
   36.8332  -18.9656   35.0153 C   0  0  0  0  0  0  0  0  0  0  0  0
   36.0716  -17.7346   34.5607 C   0  0  0  0  0  0  0  0  0  0  0  0
   35.0420  -18.1640   33.7239 O   0  0  0  0  0  0  0  0  0  0  0  0
   31.6190  -20.2113   35.1171 C   0  0  0  0  0  0  0  0  0  0  0  0
   32.4575  -20.7696   34.1769 C   0  0  0  0  0  0  0  0  0  0  0  0
   33.5872  -20.0967   33.7154 C   0  0  0  0  0  0  0  0  0  0  0  0
   33.9078  -18.8419   34.1858 C   0  0  0  0  0  0  0  0  0  0  0  0
   33.0657  -18.2879   35.1265 C   0  0  0  0  0  0  0  0  0  0  0  0
   31.9379  -18.9566   35.5889 C   0  0  0  0  0  0  0  0  0  0  0  0
   28.2325  -22.3105   36.4653 C   0  0  0  0  0  0  0  0  0  0  0  0
   29.1771  -22.9182   35.6678 C   0  0  0  0  0  0  0  0  0  0  0  0
   30.2447  -22.2103   35.2591 N   0  0  0  0  0  0  0  0  0  0  0  0
   30.4385  -20.9236   35.5940 C   0  0  0  0  0  0  0  0  0  0  0  0
   29.5173  -20.3375   36.3696 N   0  0  0  0  0  0  0  0  0  0  0  0
   28.4176  -20.9973   36.8152 C   0  0  0  0  0  0  0  0  0  0  0  0
   38.2943  -18.5988   35.1440 C   0  0  0  0  0  0  0  0  0  0  0  0
   39.1151  -19.7330   35.5261 N   0  0  0  0  0  0  0  0  0  0  0  0
   40.5000  -19.3335   35.3613 C   0  0  0  0  0  0  0  0  0  0  0  0
   40.9859  -18.6956   36.6690 C   0  0  0  0  0  0  0  0  0  0  0  0
   41.1805  -19.8348   37.6369 C   0  0  0  0  0  0  0  0  0  0  0  0
   39.9647  -20.6976   37.6173 C   0  0  0  0  0  0  0  0  0  0  0  0
   38.8023  -20.0476   36.9041 C   0  0  0  0  0  0  0  0  0  0  0  0
   41.5411  -19.3494   39.0210 C   0  0  0  0  0  0  0  0  0  0  0  0
   42.9441  -19.7193   39.2942 C   0  0  0  0  0  0  0  0  0  0  0  0
   43.8423  -19.1021   40.1233 C   0  0  0  0  0  0  0  0  0  0  0  0
   44.9970  -19.7621   40.0758 N   0  0  0  0  0  0  0  0  0  0  0  0
   44.8508  -20.7886   39.2317 C   0  0  0  0  0  0  0  0  0  0  0  0
   43.5992  -20.7575   38.7589 N   0  0  0  0  0  0  0  0  0  0  0  0
   43.1964  -21.4511   38.0679 H   0  0  0  0  0  0  0  0  0  0  0  0
 10 11  2  0  0  0
 11 12  1  0  0  0
 12 13  2  0  0  0
 13  4  1  0  0  0
  4  5  2  0  0  0
  5  6  1  0  0  0
  6  7  2  0  0  0
  7  3  1  0  0  0
  3  2  1  0  0  0
  2  1  1  0  0  0
  1 16  1  0  0  0
 16 17  1  0  0  0
 17 18  1  0  0  0
 18 19  1  0  0  0
 19 20  1  0  0  0
 20 23  1  0  0  0
 23 24  1  0  0  0
 24 25  2  0  0  0
 25 26  1  0  0  0
 26 27  2  0  0  0
 27 28  1  0  0  0
 20 21  1  0  0  0
 21 22  1  0  0  0
  7  8  1  0  0  0
  8  9  2  0  0  0
 13 14  1  0  0  0
 14 15  2  0  0  0
 15 10  1  0  0  0
  9  4  1  0  0  0
 22 17  1  0  0  0
 28 24  1  0  0  0
 28 29  1  0  0  0
M  END
> <minimizedAffinity>
-5.64928

> <CNNscore>
0.4661726058

> <CNNaffinity>
4.7109541893

> <CNN_VS>
2.1961178780

> <CNNaffinity_variance>
0.5380690694

$$$$
[H]c1nc(-c2c([H])c([H])c(OC([H])([H])C([H])([H])C([H])([H])N3C([H])([H])C([H])([H])C([H])(C([H])([H])c4c([H])nc([H])n4[H])C([H])([H])C3([H])[H])c([H])c2[H])nc([H])c1[H]


 29 32  0  0  0  0  0  0  0  0999 V2000
   34.9515  -19.5948   37.3909 C   0  0  0  0  0  0  0  0  0  0  0  0
   36.3208  -19.6489   36.7398 C   0  0  0  0  0  0  0  0  0  0  0  0
   36.4284  -18.5428   35.8973 O   0  0  0  0  0  0  0  0  0  0  0  0
   34.8922  -14.7284   36.8665 C   0  0  0  0  0  0  0  0  0  0  0  0
   34.2375  -15.5653   35.9892 C   0  0  0  0  0  0  0  0  0  0  0  0
   34.7419  -16.8240   35.6676 C   0  0  0  0  0  0  0  0  0  0  0  0
   35.9198  -17.2789   36.2187 C   0  0  0  0  0  0  0  0  0  0  0  0
   36.5708  -16.4378   37.0959 C   0  0  0  0  0  0  0  0  0  0  0  0
   36.0703  -15.1815   37.4189 C   0  0  0  0  0  0  0  0  0  0  0  0
   33.3859  -10.9104   37.7869 C   0  0  0  0  0  0  0  0  0  0  0  0
   34.4626  -11.0674   36.9421 C   0  0  0  0  0  0  0  0  0  0  0  0
   34.9120  -12.3061   36.6746 N   0  0  0  0  0  0  0  0  0  0  0  0
   34.3563  -13.4123   37.1969 C   0  0  0  0  0  0  0  0  0  0  0  0
   33.3099  -13.2543   38.0177 N   0  0  0  0  0  0  0  0  0  0  0  0
   32.8087  -12.0311   38.3273 C   0  0  0  0  0  0  0  0  0  0  0  0
   34.2551  -20.9132   37.1413 C   0  0  0  0  0  0  0  0  0  0  0  0
   33.4573  -20.8937   35.9292 N   0  0  0  0  0  0  0  0  0  0  0  0
   32.7501  -22.1587   35.8622 C   0  0  0  0  0  0  0  0  0  0  0  0
   31.4132  -22.0135   36.6001 C   0  0  0  0  0  0  0  0  0  0  0  0
   30.5274  -21.1975   35.6935 C   0  0  0  0  0  0  0  0  0  0  0  0
   31.2803  -19.9933   35.2395 C   0  0  0  0  0  0  0  0  0  0  0  0
   32.5496  -19.7702   36.0278 C   0  0  0  0  0  0  0  0  0  0  0  0
   29.2057  -20.8608   36.3426 C   0  0  0  0  0  0  0  0  0  0  0  0
   28.3682  -22.0766   36.3531 C   0  0  0  0  0  0  0  0  0  0  0  0
   27.6031  -22.5758   37.3733 C   0  0  0  0  0  0  0  0  0  0  0  0
   27.0091  -23.6927   36.9601 N   0  0  0  0  0  0  0  0  0  0  0  0
   27.3816  -23.9143   35.6954 C   0  0  0  0  0  0  0  0  0  0  0  0
   28.2089  -22.9274   35.3312 N   0  0  0  0  0  0  0  0  0  0  0  0
   28.6636  -22.8398   34.3791 H   0  0  0  0  0  0  0  0  0  0  0  0
 10 11  2  0  0  0
 11 12  1  0  0  0
 12 13  2  0  0  0
 13  4  1  0  0  0
  4  5  2  0  0  0
  5  6  1  0  0  0
  6  7  2  0  0  0
  7  3  1  0  0  0
  3  2  1  0  0  0
  2  1  1  0  0  0
  1 16  1  0  0  0
 16 17  1  0  0  0
 17 18  1  0  0  0
 18 19  1  0  0  0
 19 20  1  0  0  0
 20 23  1  0  0  0
 23 24  1  0  0  0
 24 25  2  0  0  0
 25 26  1  0  0  0
 26 27  2  0  0  0
 27 28  1  0  0  0
 20 21  1  0  0  0
 21 22  1  0  0  0
  7  8  1  0  0  0
  8  9  2  0  0  0
 13 14  1  0  0  0
 14 15  2  0  0  0
 15 10  1  0  0  0
  9  4  1  0  0  0
 22 17  1  0  0  0
 28 24  1  0  0  0
 28 29  1  0  0  0
M  END
> <minimizedAffinity>
-6.58920

> <CNNscore>
0.4158603847

> <CNNaffinity>
5.3709182739

> <CNN_VS>
2.2335522175

> <CNNaffinity_variance>
0.3737111986

$$$$
[H]c1nc(-c2c([H])c([H])c(OC([H])([H])C([H])([H])C([H])([H])N3C([H])([H])C([H])([H])C([H])(C([H])([H])c4c([H])nc([H])n4[H])C([H])([H])C3([H])[H])c([H])c2[H])nc([H])c1[H]


 29 32  0  0  0  0  0  0  0  0999 V2000
   37.3811  -19.2288   36.1674 C   0  0  0  0  0  0  0  0  0  0  0  0
   36.5233  -18.2935   36.9989 C   0  0  0  0  0  0  0  0  0  0  0  0
   36.8922  -16.9880   36.6759 O   0  0  0  0  0  0  0  0  0  0  0  0
   34.3163  -13.6693   37.1229 C   0  0  0  0  0  0  0  0  0  0  0  0
   35.5215  -13.7386   37.7875 C   0  0  0  0  0  0  0  0  0  0  0  0
   36.3731  -14.8320   37.6420 C   0  0  0  0  0  0  0  0  0  0  0  0
   36.0384  -15.8887   36.8237 C   0  0  0  0  0  0  0  0  0  0  0  0
   34.8317  -15.8145   36.1610 C   0  0  0  0  0  0  0  0  0  0  0  0
   33.9798  -14.7250   36.3040 C   0  0  0  0  0  0  0  0  0  0  0  0
   31.8092  -10.3237   37.5853 C   0  0  0  0  0  0  0  0  0  0  0  0
   33.1806  -10.1943   37.5999 C   0  0  0  0  0  0  0  0  0  0  0  0
   33.9450  -11.2901   37.4486 N   0  0  0  0  0  0  0  0  0  0  0  0
   33.4314  -12.5204   37.2817 C   0  0  0  0  0  0  0  0  0  0  0  0
   32.0976  -12.6408   37.2682 N   0  0  0  0  0  0  0  0  0  0  0  0
   31.2711  -11.5738   37.4157 C   0  0  0  0  0  0  0  0  0  0  0  0
   37.3955  -18.7196   34.7439 C   0  0  0  0  0  0  0  0  0  0  0  0
   38.1207  -19.6036   33.8502 N   0  0  0  0  0  0  0  0  0  0  0  0
   39.2135  -18.8362   33.2833 C   0  0  0  0  0  0  0  0  0  0  0  0
   40.4334  -18.9647   34.2045 C   0  0  0  0  0  0  0  0  0  0  0  0
   40.9762  -20.3530   33.9800 C   0  0  0  0  0  0  0  0  0  0  0  0
   39.8528  -21.3298   34.0646 C   0  0  0  0  0  0  0  0  0  0  0  0
   38.5954  -20.7208   34.6393 C   0  0  0  0  0  0  0  0  0  0  0  0
   42.1154  -20.6766   34.9175 C   0  0  0  0  0  0  0  0  0  0  0  0
   42.6094  -22.0313   34.6010 C   0  0  0  0  0  0  0  0  0  0  0  0
   42.7275  -23.1118   35.4341 C   0  0  0  0  0  0  0  0  0  0  0  0
   43.2166  -24.1381   34.7424 N   0  0  0  0  0  0  0  0  0  0  0  0
   43.4124  -23.7315   33.4839 C   0  0  0  0  0  0  0  0  0  0  0  0
   43.0410  -22.4482   33.4037 N   0  0  0  0  0  0  0  0  0  0  0  0
   43.0848  -21.8598   32.5246 H   0  0  0  0  0  0  0  0  0  0  0  0
 10 11  2  0  0  0
 11 12  1  0  0  0
 12 13  2  0  0  0
 13  4  1  0  0  0
  4  5  2  0  0  0
  5  6  1  0  0  0
  6  7  2  0  0  0
  7  3  1  0  0  0
  3  2  1  0  0  0
  2  1  1  0  0  0
  1 16  1  0  0  0
 16 17  1  0  0  0
 17 18  1  0  0  0
 18 19  1  0  0  0
 19 20  1  0  0  0
 20 23  1  0  0  0
 23 24  1  0  0  0
 24 25  2  0  0  0
 25 26  1  0  0  0
 26 27  2  0  0  0
 27 28  1  0  0  0
 20 21  1  0  0  0
 21 22  1  0  0  0
  7  8  1  0  0  0
  8  9  2  0  0  0
 13 14  1  0  0  0
 14 15  2  0  0  0
 15 10  1  0  0  0
  9  4  1  0  0  0
 22 17  1  0  0  0
 28 24  1  0  0  0
 28 29  1  0  0  0
M  END
> <minimizedAffinity>
-6.39464

> <CNNscore>
0.3619174063

> <CNNaffinity>
5.3606805801

> <CNN_VS>
1.9401235580

> <CNNaffinity_variance>
0.0966050848

$$$$
[H]OC(=O)[C@]1([H])N([H])[C@@]([H])(C([H])([H])C([H])([H])c2c([H])c([H])c([H])c([H])c2[H])C(=O)N([H])[C@]([H])(C(=O)N([H])C([H])([H])[H])C([H])([H])C([H])([H])C(=O)OC([H])([H])C([H])([H])N([H])C(=O)C([H])([H])C1([H])[H]


 39 40  0  0  0  0  0  0  0  0999 V2000
   30.8613  -22.5310   37.7712 C   0  0  0  0  0  0  0  0  0  0  0  0
   31.2986  -21.4784   36.8066 C   0  0  0  0  0  0  0  0  0  0  0  0
   30.6039  -21.4281   35.4912 C   0  0  0  0  0  0  0  0  0  0  0  0
   31.6037  -21.1695   34.3910 C   0  0  0  0  0  0  0  0  0  0  0  0
   32.0245  -22.2002   33.7626 O   0  0  0  0  0  0  0  0  0  0  0  0
   32.0621  -19.9303   34.0494 O   0  0  0  0  0  0  0  0  0  0  0  0
   32.5954  -18.9329   34.8475 C   0  0  0  0  0  0  0  0  0  0  0  0
   34.1211  -18.9560   34.9446 C   0  0  0  0  0  0  0  0  0  0  0  0
   34.5089  -18.1953   36.1002 N   0  0  0  0  0  0  0  0  0  0  0  0
   35.6750  -18.3694   36.8784 C   0  0  0  0  0  0  0  0  0  0  0  0
   36.3853  -17.3602   37.2172 O   0  0  0  0  0  0  0  0  0  0  0  0
   36.1766  -19.6913   37.3646 C   0  0  0  0  0  0  0  0  0  0  0  0
   35.0630  -20.5850   37.8030 C   0  0  0  0  0  0  0  0  0  0  0  0
   34.6678  -20.4639   39.2595 C   0  0  0  0  0  0  0  0  0  0  0  0
   33.6332  -21.4222   39.5196 N   0  0  0  0  0  0  0  0  0  0  0  0
   33.8806  -22.7903   39.3899 C   0  0  0  0  0  0  0  0  0  0  0  0
   33.1998  -23.4973   38.2697 C   0  0  0  0  0  0  0  0  0  0  0  0
   33.9893  -24.1233   37.4777 O   0  0  0  0  0  0  0  0  0  0  0  0
   31.8531  -23.5785   37.9642 N   0  0  0  0  0  0  0  0  0  0  0  0
   33.8583  -17.4149   36.4087 H   0  0  0  0  0  0  0  0  0  0  0  0
   33.0168  -21.0749   40.2506 H   0  0  0  0  0  0  0  0  0  0  0  0
   31.4408  -24.5639   37.8423 H   0  0  0  0  0  0  0  0  0  0  0  0
   27.0515  -22.8537   37.4481 C   0  0  0  0  0  0  0  0  0  0  0  0
   28.3652  -22.3562   37.7682 N   0  0  0  0  0  0  0  0  0  0  0  0
   29.5298  -23.0613   37.4330 C   0  0  0  0  0  0  0  0  0  0  0  0
   29.4334  -24.1492   36.8424 O   0  0  0  0  0  0  0  0  0  0  0  0
   28.4500  -21.4447   38.2644 H   0  0  0  0  0  0  0  0  0  0  0  0
   35.8134  -20.4765   40.1663 C   0  0  0  0  0  0  0  0  0  0  0  0
   37.0103  -20.6847   39.8624 O   0  0  0  0  0  0  0  0  0  0  0  0
   35.5430  -20.2321   41.5254 O   0  0  0  0  0  0  0  0  0  0  0  0
   35.4464  -21.0590   42.0993 H   0  0  0  0  0  0  0  0  0  0  0  0
   33.6683  -23.5764   40.6890 C   0  0  0  0  0  0  0  0  0  0  0  0
   34.9095  -23.6237   41.5129 C   0  0  0  0  0  0  0  0  0  0  0  0
   36.0430  -24.2623   40.7716 C   0  0  0  0  0  0  0  0  0  0  0  0
   35.8965  -25.3882   40.0208 C   0  0  0  0  0  0  0  0  0  0  0  0
   37.0239  -25.8842   39.3771 C   0  0  0  0  0  0  0  0  0  0  0  0
   38.2583  -25.2728   39.4819 C   0  0  0  0  0  0  0  0  0  0  0  0
   38.3917  -24.1358   40.2441 C   0  0  0  0  0  0  0  0  0  0  0  0
   37.2717  -23.6503   40.8783 C   0  0  0  0  0  0  0  0  0  0  0  0
 23 24  1  0  0  0
 24 25  1  0  0  0
 25 26  2  0  0  0
 25  1  1  0  0  0
  1  2  1  0  0  0
  2  3  1  0  0  0
  3  4  1  0  0  0
  4  5  2  0  0  0
  4  6  1  0  0  0
  6  7  1  0  0  0
  7  8  1  0  0  0
  8  9  1  0  0  0
  9 10  1  0  0  0
 10 11  2  0  0  0
 10 12  1  0  0  0
 12 13  1  0  0  0
 13 14  1  0  0  0
 14 28  1  0  0  0
 28 29  2  0  0  0
 28 30  1  0  0  0
 14 15  1  0  0  0
 15 16  1  0  0  0
 16 32  1  0  0  0
 32 33  1  0  0  0
 33 34  1  0  0  0
 34 35  2  0  0  0
 35 36  1  0  0  0
 36 37  2  0  0  0
 37 38  1  0  0  0
 38 39  2  0  0  0
 16 17  1  0  0  0
 17 18  2  0  0  0
 17 19  1  0  0  0
 19  1  1  0  0  0
 39 34  1  0  0  0
 24 27  1  0  0  0
  9 20  1  0  0  0
 30 31  1  0  0  0
 15 21  1  0  0  0
 19 22  1  0  0  0
M  END
> <minimizedAffinity>
-3.65633

> <CNNscore>
0.4609540105

> <CNNaffinity>
4.7488780022

> <CNN_VS>
2.1890144348

> <CNNaffinity_variance>
0.7826949358

$$$$
[H]OC(=O)[C@]1([H])N([H])[C@@]([H])(C([H])([H])C([H])([H])c2c([H])c([H])c([H])c([H])c2[H])C(=O)N([H])[C@]([H])(C(=O)N([H])C([H])([H])[H])C([H])([H])C([H])([H])C(=O)OC([H])([H])C([H])([H])N([H])C(=O)C([H])([H])C1([H])[H]


 39 40  0  0  0  0  0  0  0  0999 V2000
   34.7120  -22.1222   37.7478 C   0  0  0  0  0  0  0  0  0  0  0  0
   33.6816  -21.3202   37.0233 C   0  0  0  0  0  0  0  0  0  0  0  0
   32.5553  -22.0644   36.3964 C   0  0  0  0  0  0  0  0  0  0  0  0
   32.2449  -21.4807   35.0399 C   0  0  0  0  0  0  0  0  0  0  0  0
   32.7690  -22.0792   34.0392 O   0  0  0  0  0  0  0  0  0  0  0  0
   31.4588  -20.3831   34.8410 O   0  0  0  0  0  0  0  0  0  0  0  0
   31.5210  -19.1316   35.4293 C   0  0  0  0  0  0  0  0  0  0  0  0
   32.3387  -18.1080   34.6412 C   0  0  0  0  0  0  0  0  0  0  0  0
   32.6899  -17.0344   35.5292 N   0  0  0  0  0  0  0  0  0  0  0  0
   33.8209  -16.1930   35.4374 C   0  0  0  0  0  0  0  0  0  0  0  0
   33.6990  -14.9258   35.5693 O   0  0  0  0  0  0  0  0  0  0  0  0
   35.2142  -16.6745   35.1879 C   0  0  0  0  0  0  0  0  0  0  0  0
   35.5077  -17.9416   35.9223 C   0  0  0  0  0  0  0  0  0  0  0  0
   36.0684  -17.7686   37.3180 C   0  0  0  0  0  0  0  0  0  0  0  0
   36.3410  -19.0716   37.8512 N   0  0  0  0  0  0  0  0  0  0  0  0
   37.2877  -19.9035   37.2499 C   0  0  0  0  0  0  0  0  0  0  0  0
   36.7779  -21.1259   36.5685 C   0  0  0  0  0  0  0  0  0  0  0  0
   37.1227  -21.2324   35.3388 O   0  0  0  0  0  0  0  0  0  0  0  0
   35.9970  -22.1541   37.0652 N   0  0  0  0  0  0  0  0  0  0  0  0
   32.0347  -16.8428   36.3426 H   0  0  0  0  0  0  0  0  0  0  0  0
   36.2293  -19.0612   38.8623 H   0  0  0  0  0  0  0  0  0  0  0  0
   36.3734  -23.1536   36.9419 H   0  0  0  0  0  0  0  0  0  0  0  0
   33.9766  -25.8836   37.5641 C   0  0  0  0  0  0  0  0  0  0  0  0
   34.4519  -24.5603   37.2495 N   0  0  0  0  0  0  0  0  0  0  0  0
   34.2152  -23.4649   38.0919 C   0  0  0  0  0  0  0  0  0  0  0  0
   33.5762  -23.6331   39.1432 O   0  0  0  0  0  0  0  0  0  0  0  0
   34.9872  -24.4153   36.3682 H   0  0  0  0  0  0  0  0  0  0  0  0
   37.1568  -16.7958   37.3810 C   0  0  0  0  0  0  0  0  0  0  0  0
   37.1187  -15.6579   37.9024 O   0  0  0  0  0  0  0  0  0  0  0  0
   38.3760  -17.1764   36.7905 O   0  0  0  0  0  0  0  0  0  0  0  0
   38.5184  -16.8428   35.8466 H   0  0  0  0  0  0  0  0  0  0  0  0
   38.4444  -20.2869   38.1803 C   0  0  0  0  0  0  0  0  0  0  0  0
   39.6321  -20.7617   37.4150 C   0  0  0  0  0  0  0  0  0  0  0  0
   40.8442  -19.9300   37.7004 C   0  0  0  0  0  0  0  0  0  0  0  0
   41.4217  -19.1190   36.7721 C   0  0  0  0  0  0  0  0  0  0  0  0
   42.5424  -18.3938   37.1587 C   0  0  0  0  0  0  0  0  0  0  0  0
   43.0681  -18.4779   38.4336 C   0  0  0  0  0  0  0  0  0  0  0  0
   42.4742  -19.3015   39.3613 C   0  0  0  0  0  0  0  0  0  0  0  0
   41.3653  -20.0163   38.9719 C   0  0  0  0  0  0  0  0  0  0  0  0
 23 24  1  0  0  0
 24 25  1  0  0  0
 25 26  2  0  0  0
 25  1  1  0  0  0
  1  2  1  0  0  0
  2  3  1  0  0  0
  3  4  1  0  0  0
  4  5  2  0  0  0
  4  6  1  0  0  0
  6  7  1  0  0  0
  7  8  1  0  0  0
  8  9  1  0  0  0
  9 10  1  0  0  0
 10 11  2  0  0  0
 10 12  1  0  0  0
 12 13  1  0  0  0
 13 14  1  0  0  0
 14 28  1  0  0  0
 28 29  2  0  0  0
 28 30  1  0  0  0
 14 15  1  0  0  0
 15 16  1  0  0  0
 16 32  1  0  0  0
 32 33  1  0  0  0
 33 34  1  0  0  0
 34 35  2  0  0  0
 35 36  1  0  0  0
 36 37  2  0  0  0
 37 38  1  0  0  0
 38 39  2  0  0  0
 16 17  1  0  0  0
 17 18  2  0  0  0
 17 19  1  0  0  0
 19  1  1  0  0  0
 39 34  1  0  0  0
 24 27  1  0  0  0
  9 20  1  0  0  0
 30 31  1  0  0  0
 15 21  1  0  0  0
 19 22  1  0  0  0
M  END
> <minimizedAffinity>
-4.31036

> <CNNscore>
0.4091912210

> <CNNaffinity>
5.0553603172

> <CNN_VS>
2.0686089993

> <CNNaffinity_variance>
0.9014527202

$$$$
[H]OC(=O)[C@]1([H])N([H])[C@@]([H])(C([H])([H])C([H])([H])c2c([H])c([H])c([H])c([H])c2[H])C(=O)N([H])[C@]([H])(C(=O)N([H])C([H])([H])[H])C([H])([H])C([H])([H])C(=O)OC([H])([H])C([H])([H])N([H])C(=O)C([H])([H])C1([H])[H]


 39 40  0  0  0  0  0  0  0  0999 V2000
   36.8028  -21.6487   39.2123 C   0  0  0  0  0  0  0  0  0  0  0  0
   36.4181  -20.5588   38.2668 C   0  0  0  0  0  0  0  0  0  0  0  0
   35.0258  -20.0400   38.3547 C   0  0  0  0  0  0  0  0  0  0  0  0
   34.4732  -19.8124   36.9692 C   0  0  0  0  0  0  0  0  0  0  0  0
   33.7469  -20.7512   36.4944 O   0  0  0  0  0  0  0  0  0  0  0  0
   34.7055  -18.6907   36.2275 O   0  0  0  0  0  0  0  0  0  0  0  0
   35.9019  -18.0681   35.9153 C   0  0  0  0  0  0  0  0  0  0  0  0
   36.5079  -18.5069   34.5820 C   0  0  0  0  0  0  0  0  0  0  0  0
   37.8993  -18.1483   34.5817 N   0  0  0  0  0  0  0  0  0  0  0  0
   38.9399  -18.7867   33.8709 C   0  0  0  0  0  0  0  0  0  0  0  0
   39.7932  -18.0972   33.2119 O   0  0  0  0  0  0  0  0  0  0  0  0
   39.1422  -20.2671   33.8177 C   0  0  0  0  0  0  0  0  0  0  0  0
   38.8748  -20.9157   35.1364 C   0  0  0  0  0  0  0  0  0  0  0  0
   40.0681  -21.0220   36.0621 C   0  0  0  0  0  0  0  0  0  0  0  0
   39.6499  -21.7123   37.2474 N   0  0  0  0  0  0  0  0  0  0  0  0
   39.2037  -23.0338   37.1821 C   0  0  0  0  0  0  0  0  0  0  0  0
   37.7589  -23.2738   37.4527 C   0  0  0  0  0  0  0  0  0  0  0  0
   37.1380  -23.8914   36.5171 O   0  0  0  0  0  0  0  0  0  0  0  0
   36.9978  -22.9332   38.5565 N   0  0  0  0  0  0  0  0  0  0  0  0
   38.1860  -17.3143   35.1732 H   0  0  0  0  0  0  0  0  0  0  0  0
   40.1916  -21.3879   38.0451 H   0  0  0  0  0  0  0  0  0  0  0  0
   36.4472  -23.7257   39.0306 H   0  0  0  0  0  0  0  0  0  0  0  0
   33.9209  -22.7566   41.4904 C   0  0  0  0  0  0  0  0  0  0  0  0
   34.8353  -22.6602   40.3811 N   0  0  0  0  0  0  0  0  0  0  0  0
   35.8814  -21.7270   40.3581 C   0  0  0  0  0  0  0  0  0  0  0  0
   36.0299  -20.9561   41.3201 O   0  0  0  0  0  0  0  0  0  0  0  0
   34.7132  -23.3044   39.5721 H   0  0  0  0  0  0  0  0  0  0  0  0
   41.2649  -21.5318   35.3967 C   0  0  0  0  0  0  0  0  0  0  0  0
   42.2647  -22.0517   35.9429 O   0  0  0  0  0  0  0  0  0  0  0  0
   41.2992  -21.4245   33.9942 O   0  0  0  0  0  0  0  0  0  0  0  0
   41.7951  -20.6187   33.6373 H   0  0  0  0  0  0  0  0  0  0  0  0
   40.0442  -24.0055   38.0187 C   0  0  0  0  0  0  0  0  0  0  0  0
   40.4921  -23.3852   39.2979 C   0  0  0  0  0  0  0  0  0  0  0  0
   41.9568  -23.0743   39.2803 C   0  0  0  0  0  0  0  0  0  0  0  0
   42.9050  -23.9917   38.9453 C   0  0  0  0  0  0  0  0  0  0  0  0
   44.2327  -23.5814   38.9633 C   0  0  0  0  0  0  0  0  0  0  0  0
   44.5992  -22.2941   39.3058 C   0  0  0  0  0  0  0  0  0  0  0  0
   43.6305  -21.3777   39.6421 C   0  0  0  0  0  0  0  0  0  0  0  0
   42.3184  -21.7905   39.6222 C   0  0  0  0  0  0  0  0  0  0  0  0
 23 24  1  0  0  0
 24 25  1  0  0  0
 25 26  2  0  0  0
 25  1  1  0  0  0
  1  2  1  0  0  0
  2  3  1  0  0  0
  3  4  1  0  0  0
  4  5  2  0  0  0
  4  6  1  0  0  0
  6  7  1  0  0  0
  7  8  1  0  0  0
  8  9  1  0  0  0
  9 10  1  0  0  0
 10 11  2  0  0  0
 10 12  1  0  0  0
 12 13  1  0  0  0
 13 14  1  0  0  0
 14 28  1  0  0  0
 28 29  2  0  0  0
 28 30  1  0  0  0
 14 15  1  0  0  0
 15 16  1  0  0  0
 16 32  1  0  0  0
 32 33  1  0  0  0
 33 34  1  0  0  0
 34 35  2  0  0  0
 35 36  1  0  0  0
 36 37  2  0  0  0
 37 38  1  0  0  0
 38 39  2  0  0  0
 16 17  1  0  0  0
 17 18  2  0  0  0
 17 19  1  0  0  0
 19  1  1  0  0  0
 39 34  1  0  0  0
 24 27  1  0  0  0
  9 20  1  0  0  0
 30 31  1  0  0  0
 15 21  1  0  0  0
 19 22  1  0  0  0
M  END
> <minimizedAffinity>
-4.01791

> <CNNscore>
0.4010517597

> <CNNaffinity>
4.5339841843

> <CNN_VS>
1.8183623552

> <CNNaffinity_variance>
0.3831057250

$$$$
[H]OC(=O)[C@]1([H])N([H])[C@@]([H])(C([H])([H])C([H])([H])c2c([H])c([H])c([H])c([H])c2[H])C(=O)N([H])[C@]([H])(C(=O)N([H])C([H])([H])[H])C([H])([H])C([H])([H])C(=O)OC([H])([H])C([H])([H])N([H])C(=O)C([H])([H])C1([H])[H]


 39 40  0  0  0  0  0  0  0  0999 V2000
   37.9757  -19.2256   34.5688 C   0  0  0  0  0  0  0  0  0  0  0  0
   37.0422  -19.5899   35.6758 C   0  0  0  0  0  0  0  0  0  0  0  0
   35.8465  -18.7255   35.8716 C   0  0  0  0  0  0  0  0  0  0  0  0
   35.6093  -18.5014   37.3448 C   0  0  0  0  0  0  0  0  0  0  0  0
   36.0724  -17.4120   37.8276 O   0  0  0  0  0  0  0  0  0  0  0  0
   34.9471  -19.3773   38.1551 O   0  0  0  0  0  0  0  0  0  0  0  0
   35.1396  -20.7365   38.3338 C   0  0  0  0  0  0  0  0  0  0  0  0
   36.0677  -21.0909   39.4960 C   0  0  0  0  0  0  0  0  0  0  0  0
   36.5266  -22.4396   39.3087 N   0  0  0  0  0  0  0  0  0  0  0  0
   37.7420  -22.9937   39.7683 C   0  0  0  0  0  0  0  0  0  0  0  0
   37.7562  -24.1335   40.3501 O   0  0  0  0  0  0  0  0  0  0  0  0
   39.0770  -22.3352   39.6284 C   0  0  0  0  0  0  0  0  0  0  0  0
   39.2279  -21.6520   38.3087 C   0  0  0  0  0  0  0  0  0  0  0  0
   39.7950  -22.5072   37.1955 C   0  0  0  0  0  0  0  0  0  0  0  0
   39.9225  -21.6863   36.0266 N   0  0  0  0  0  0  0  0  0  0  0  0
   40.7781  -20.5827   36.0211 C   0  0  0  0  0  0  0  0  0  0  0  0
   40.1443  -19.2361   35.9647 C   0  0  0  0  0  0  0  0  0  0  0  0
   40.4835  -18.4483   36.9169 O   0  0  0  0  0  0  0  0  0  0  0  0
   39.2542  -18.7160   35.0422 N   0  0  0  0  0  0  0  0  0  0  0  0
   35.8906  -23.0988   38.7717 H   0  0  0  0  0  0  0  0  0  0  0  0
   39.8061  -22.2548   35.1911 H   0  0  0  0  0  0  0  0  0  0  0  0
   39.5217  -17.7822   34.5816 H   0  0  0  0  0  0  0  0  0  0  0  0
   37.4922  -16.7819   31.6503 C   0  0  0  0  0  0  0  0  0  0  0  0
   38.0953  -17.6579   32.6223 N   0  0  0  0  0  0  0  0  0  0  0  0
   37.3352  -18.3354   33.5862 C   0  0  0  0  0  0  0  0  0  0  0  0
   36.1036  -18.1797   33.6090 O   0  0  0  0  0  0  0  0  0  0  0  0
   39.1281  -17.7901   32.6069 H   0  0  0  0  0  0  0  0  0  0  0  0
   40.9813  -23.2588   37.5989 C   0  0  0  0  0  0  0  0  0  0  0  0
   41.1651  -24.4921   37.4827 O   0  0  0  0  0  0  0  0  0  0  0  0
   42.0265  -22.5194   38.1825 O   0  0  0  0  0  0  0  0  0  0  0  0
   42.0382  -22.5172   39.1936 H   0  0  0  0  0  0  0  0  0  0  0  0
   41.8809  -20.6687   34.9595 C   0  0  0  0  0  0  0  0  0  0  0  0
   43.2268  -20.4002   35.5410 C   0  0  0  0  0  0  0  0  0  0  0  0
   43.5330  -18.9348   35.5766 C   0  0  0  0  0  0  0  0  0  0  0  0
   43.5005  -18.1439   34.4691 C   0  0  0  0  0  0  0  0  0  0  0  0
   43.8014  -16.7968   34.6308 C   0  0  0  0  0  0  0  0  0  0  0  0
   44.1247  -16.2589   35.8616 C   0  0  0  0  0  0  0  0  0  0  0  0
   44.1538  -17.0699   36.9720 C   0  0  0  0  0  0  0  0  0  0  0  0
   43.8548  -18.4022   36.8047 C   0  0  0  0  0  0  0  0  0  0  0  0
 23 24  1  0  0  0
 24 25  1  0  0  0
 25 26  2  0  0  0
 25  1  1  0  0  0
  1  2  1  0  0  0
  2  3  1  0  0  0
  3  4  1  0  0  0
  4  5  2  0  0  0
  4  6  1  0  0  0
  6  7  1  0  0  0
  7  8  1  0  0  0
  8  9  1  0  0  0
  9 10  1  0  0  0
 10 11  2  0  0  0
 10 12  1  0  0  0
 12 13  1  0  0  0
 13 14  1  0  0  0
 14 28  1  0  0  0
 28 29  2  0  0  0
 28 30  1  0  0  0
 14 15  1  0  0  0
 15 16  1  0  0  0
 16 32  1  0  0  0
 32 33  1  0  0  0
 33 34  1  0  0  0
 34 35  2  0  0  0
 35 36  1  0  0  0
 36 37  2  0  0  0
 37 38  1  0  0  0
 38 39  2  0  0  0
 16 17  1  0  0  0
 17 18  2  0  0  0
 17 19  1  0  0  0
 19  1  1  0  0  0
 39 34  1  0  0  0
 24 27  1  0  0  0
  9 20  1  0  0  0
 30 31  1  0  0  0
 15 21  1  0  0  0
 19 22  1  0  0  0
M  END
> <minimizedAffinity>
-4.29391

> <CNNscore>
0.3993471563

> <CNNaffinity>
4.8655333519

> <CNN_VS>
1.9430369139

> <CNNaffinity_variance>
0.2321463823

$$$$
[H]OC(=O)[C@]1([H])N([H])[C@@]([H])(C([H])([H])C([H])([H])c2c([H])c([H])c([H])c([H])c2[H])C(=O)N([H])[C@]([H])(C(=O)N([H])C([H])([H])[H])C([H])([H])C([H])([H])C(=O)OC([H])([H])C([H])([H])N([H])C(=O)C([H])([H])C1([H])[H]


 39 40  0  0  0  0  0  0  0  0999 V2000
   35.9336  -18.1384   37.1468 C   0  0  0  0  0  0  0  0  0  0  0  0
   37.2603  -18.4373   36.5300 C   0  0  0  0  0  0  0  0  0  0  0  0
   37.5735  -17.7770   35.2334 C   0  0  0  0  0  0  0  0  0  0  0  0
   38.2590  -18.7546   34.3106 C   0  0  0  0  0  0  0  0  0  0  0  0
   37.5083  -19.3415   33.4584 O   0  0  0  0  0  0  0  0  0  0  0  0
   39.5951  -19.0302   34.3440 O   0  0  0  0  0  0  0  0  0  0  0  0
   40.3988  -19.3869   35.4132 C   0  0  0  0  0  0  0  0  0  0  0  0
   40.5600  -20.8957   35.6006 C   0  0  0  0  0  0  0  0  0  0  0  0
   41.0203  -21.1350   36.9405 N   0  0  0  0  0  0  0  0  0  0  0  0
   40.8014  -22.2935   37.7186 C   0  0  0  0  0  0  0  0  0  0  0  0
   41.7667  -22.8352   38.3611 O   0  0  0  0  0  0  0  0  0  0  0  0
   39.4790  -22.9754   37.8652 C   0  0  0  0  0  0  0  0  0  0  0  0
   38.3549  -21.9978   37.9743 C   0  0  0  0  0  0  0  0  0  0  0  0
   38.0163  -21.5515   39.3809 C   0  0  0  0  0  0  0  0  0  0  0  0
   36.8906  -20.6664   39.3064 N   0  0  0  0  0  0  0  0  0  0  0  0
   35.6580  -21.1198   38.8319 C   0  0  0  0  0  0  0  0  0  0  0  0
   35.1988  -20.5820   37.5211 C   0  0  0  0  0  0  0  0  0  0  0  0
   34.9290  -21.4767   36.6442 O   0  0  0  0  0  0  0  0  0  0  0  0
   35.0202  -19.2710   37.1172 N   0  0  0  0  0  0  0  0  0  0  0  0
   41.5890  -20.3668   37.4031 H   0  0  0  0  0  0  0  0  0  0  0  0
   36.9357  -19.9861   40.0615 H   0  0  0  0  0  0  0  0  0  0  0  0
   34.0590  -19.0148   36.7092 H   0  0  0  0  0  0  0  0  0  0  0  0
   35.2136  -14.4297   36.4760 C   0  0  0  0  0  0  0  0  0  0  0  0
   35.7795  -15.6451   37.0037 N   0  0  0  0  0  0  0  0  0  0  0  0
   35.3387  -16.9109   36.5923 C   0  0  0  0  0  0  0  0  0  0  0  0
   34.4324  -16.9944   35.7477 O   0  0  0  0  0  0  0  0  0  0  0  0
   36.5390  -15.5790   37.7130 H   0  0  0  0  0  0  0  0  0  0  0  0
   37.9130  -22.6623   40.3245 C   0  0  0  0  0  0  0  0  0  0  0  0
   37.2448  -23.7116   40.1801 O   0  0  0  0  0  0  0  0  0  0  0  0
   38.6386  -22.5389   41.5237 O   0  0  0  0  0  0  0  0  0  0  0  0
   38.1076  -22.1969   42.3134 H   0  0  0  0  0  0  0  0  0  0  0  0
   34.5243  -20.9945   39.8563 C   0  0  0  0  0  0  0  0  0  0  0  0
   34.1171  -22.3245   40.3921 C   0  0  0  0  0  0  0  0  0  0  0  0
   33.4088  -23.1451   39.3590 C   0  0  0  0  0  0  0  0  0  0  0  0
   32.3128  -22.7018   38.6844 C   0  0  0  0  0  0  0  0  0  0  0  0
   31.7451  -23.5557   37.7463 C   0  0  0  0  0  0  0  0  0  0  0  0
   32.2581  -24.8130   37.4920 C   0  0  0  0  0  0  0  0  0  0  0  0
   33.3660  -25.2479   38.1812 C   0  0  0  0  0  0  0  0  0  0  0  0
   33.9228  -24.3976   39.1082 C   0  0  0  0  0  0  0  0  0  0  0  0
 23 24  1  0  0  0
 24 25  1  0  0  0
 25 26  2  0  0  0
 25  1  1  0  0  0
  1  2  1  0  0  0
  2  3  1  0  0  0
  3  4  1  0  0  0
  4  5  2  0  0  0
  4  6  1  0  0  0
  6  7  1  0  0  0
  7  8  1  0  0  0
  8  9  1  0  0  0
  9 10  1  0  0  0
 10 11  2  0  0  0
 10 12  1  0  0  0
 12 13  1  0  0  0
 13 14  1  0  0  0
 14 28  1  0  0  0
 28 29  2  0  0  0
 28 30  1  0  0  0
 14 15  1  0  0  0
 15 16  1  0  0  0
 16 32  1  0  0  0
 32 33  1  0  0  0
 33 34  1  0  0  0
 34 35  2  0  0  0
 35 36  1  0  0  0
 36 37  2  0  0  0
 37 38  1  0  0  0
 38 39  2  0  0  0
 16 17  1  0  0  0
 17 18  2  0  0  0
 17 19  1  0  0  0
 19  1  1  0  0  0
 39 34  1  0  0  0
 24 27  1  0  0  0
  9 20  1  0  0  0
 30 31  1  0  0  0
 15 21  1  0  0  0
 19 22  1  0  0  0
M  END
> <minimizedAffinity>
-4.07492

> <CNNscore>
0.3982574344

> <CNNaffinity>
4.7155928612

> <CNN_VS>
1.8780199289

> <CNNaffinity_variance>
0.4257524014

$$$$
[H]OC(=O)[C@]1([H])N([H])[C@@]([H])(C([H])([H])C([H])([H])c2c([H])c([H])c([H])c([H])c2[H])C(=O)N([H])[C@]([H])(C(=O)N([H])C([H])([H])[H])C([H])([H])C([H])([H])C(=O)OC([H])([H])C([H])([H])N([H])C(=O)C([H])([H])C1([H])[H]


 39 40  0  0  0  0  0  0  0  0999 V2000
   36.4671  -19.4890   35.5056 C   0  0  0  0  0  0  0  0  0  0  0  0
   35.0628  -19.5595   35.0030 C   0  0  0  0  0  0  0  0  0  0  0  0
   34.5727  -18.4157   34.1865 C   0  0  0  0  0  0  0  0  0  0  0  0
   33.1553  -18.0753   34.5762 C   0  0  0  0  0  0  0  0  0  0  0  0
   33.0184  -17.1165   35.4107 O   0  0  0  0  0  0  0  0  0  0  0  0
   32.0535  -18.7214   34.0957 O   0  0  0  0  0  0  0  0  0  0  0  0
   31.7749  -20.0764   34.0428 C   0  0  0  0  0  0  0  0  0  0  0  0
   30.9816  -20.6008   35.2400 C   0  0  0  0  0  0  0  0  0  0  0  0
   31.1377  -22.0282   35.2914 N   0  0  0  0  0  0  0  0  0  0  0  0
   31.0698  -22.8483   36.4396 C   0  0  0  0  0  0  0  0  0  0  0  0
   30.3842  -23.9289   36.4252 O   0  0  0  0  0  0  0  0  0  0  0  0
   31.7610  -22.5517   37.7317 C   0  0  0  0  0  0  0  0  0  0  0  0
   33.1269  -21.9861   37.5182 C   0  0  0  0  0  0  0  0  0  0  0  0
   34.2441  -23.0037   37.4248 C   0  0  0  0  0  0  0  0  0  0  0  0
   35.4805  -22.2926   37.2767 N   0  0  0  0  0  0  0  0  0  0  0  0
   35.9367  -21.4397   38.2838 C   0  0  0  0  0  0  0  0  0  0  0  0
   35.9438  -19.9810   37.9826 C   0  0  0  0  0  0  0  0  0  0  0  0
   35.2884  -19.2624   38.8171 O   0  0  0  0  0  0  0  0  0  0  0  0
   36.5509  -19.2955   36.9457 N   0  0  0  0  0  0  0  0  0  0  0  0
   31.3208  -22.5301   34.3737 H   0  0  0  0  0  0  0  0  0  0  0  0
   36.1364  -22.8498   36.7342 H   0  0  0  0  0  0  0  0  0  0  0  0
   37.1968  -18.4793   37.2149 H   0  0  0  0  0  0  0  0  0  0  0  0
   38.8636  -17.9738   32.9203 C   0  0  0  0  0  0  0  0  0  0  0  0
   38.0713  -18.9118   33.6743 N   0  0  0  0  0  0  0  0  0  0  0  0
   37.2679  -18.5106   34.7509 C   0  0  0  0  0  0  0  0  0  0  0  0
   37.2337  -17.3112   35.0704 O   0  0  0  0  0  0  0  0  0  0  0  0
   38.0983  -19.9186   33.4099 H   0  0  0  0  0  0  0  0  0  0  0  0
   34.1915  -24.0100   38.4829 C   0  0  0  0  0  0  0  0  0  0  0  0
   34.1757  -25.2537   38.3372 O   0  0  0  0  0  0  0  0  0  0  0  0
   34.1511  -23.5312   39.8053 O   0  0  0  0  0  0  0  0  0  0  0  0
   33.2274  -23.4723   40.2125 H   0  0  0  0  0  0  0  0  0  0  0  0
   37.2989  -21.8451   38.8587 C   0  0  0  0  0  0  0  0  0  0  0  0
   38.3108  -22.0509   37.7837 C   0  0  0  0  0  0  0  0  0  0  0  0
   38.9074  -23.4232   37.8393 C   0  0  0  0  0  0  0  0  0  0  0  0
   38.4213  -24.4106   38.6405 C   0  0  0  0  0  0  0  0  0  0  0  0
   39.0596  -25.6444   38.6013 C   0  0  0  0  0  0  0  0  0  0  0  0
   40.1497  -25.8820   37.7865 C   0  0  0  0  0  0  0  0  0  0  0  0
   40.6302  -24.8751   36.9823 C   0  0  0  0  0  0  0  0  0  0  0  0
   39.9935  -23.6564   37.0260 C   0  0  0  0  0  0  0  0  0  0  0  0
 23 24  1  0  0  0
 24 25  1  0  0  0
 25 26  2  0  0  0
 25  1  1  0  0  0
  1  2  1  0  0  0
  2  3  1  0  0  0
  3  4  1  0  0  0
  4  5  2  0  0  0
  4  6  1  0  0  0
  6  7  1  0  0  0
  7  8  1  0  0  0
  8  9  1  0  0  0
  9 10  1  0  0  0
 10 11  2  0  0  0
 10 12  1  0  0  0
 12 13  1  0  0  0
 13 14  1  0  0  0
 14 28  1  0  0  0
 28 29  2  0  0  0
 28 30  1  0  0  0
 14 15  1  0  0  0
 15 16  1  0  0  0
 16 32  1  0  0  0
 32 33  1  0  0  0
 33 34  1  0  0  0
 34 35  2  0  0  0
 35 36  1  0  0  0
 36 37  2  0  0  0
 37 38  1  0  0  0
 38 39  2  0  0  0
 16 17  1  0  0  0
 17 18  2  0  0  0
 17 19  1  0  0  0
 19  1  1  0  0  0
 39 34  1  0  0  0
 24 27  1  0  0  0
  9 20  1  0  0  0
 30 31  1  0  0  0
 15 21  1  0  0  0
 19 22  1  0  0  0
M  END
> <minimizedAffinity>
-4.31503

> <CNNscore>
0.3936251104

> <CNNaffinity>
4.8686399460

> <CNN_VS>
1.9164189100

> <CNNaffinity_variance>
0.2350667715

$$$$
[H]OC(=O)[C@]1([H])N([H])[C@@]([H])(C([H])([H])C([H])([H])c2c([H])c([H])c([H])c([H])c2[H])C(=O)N([H])[C@]([H])(C(=O)N([H])C([H])([H])[H])C([H])([H])C([H])([H])C(=O)OC([H])([H])C([H])([H])N([H])C(=O)C([H])([H])C1([H])[H]


 39 40  0  0  0  0  0  0  0  0999 V2000
   40.6133  -23.0035   33.8139 C   0  0  0  0  0  0  0  0  0  0  0  0
   41.4923  -23.4279   34.9440 C   0  0  0  0  0  0  0  0  0  0  0  0
   41.5728  -24.8854   35.2349 C   0  0  0  0  0  0  0  0  0  0  0  0
   41.5595  -25.1138   36.7263 C   0  0  0  0  0  0  0  0  0  0  0  0
   40.4249  -25.4052   37.2385 O   0  0  0  0  0  0  0  0  0  0  0  0
   42.6635  -25.0264   37.5236 O   0  0  0  0  0  0  0  0  0  0  0  0
   43.6013  -24.0135   37.6289 C   0  0  0  0  0  0  0  0  0  0  0  0
   43.3034  -22.9949   38.7293 C   0  0  0  0  0  0  0  0  0  0  0  0
   44.0627  -21.8056   38.4576 N   0  0  0  0  0  0  0  0  0  0  0  0
   43.7338  -20.4845   38.8344 C   0  0  0  0  0  0  0  0  0  0  0  0
   44.6163  -19.7213   39.3604 O   0  0  0  0  0  0  0  0  0  0  0  0
   42.3816  -19.8694   38.6651 C   0  0  0  0  0  0  0  0  0  0  0  0
   41.7446  -20.2664   37.3737 C   0  0  0  0  0  0  0  0  0  0  0  0
   42.0445  -19.3629   36.1964 C   0  0  0  0  0  0  0  0  0  0  0  0
   41.3162  -19.8546   35.0632 N   0  0  0  0  0  0  0  0  0  0  0  0
   39.9202  -19.8819   35.0708 C   0  0  0  0  0  0  0  0  0  0  0  0
   39.2704  -21.2216   35.1072 C   0  0  0  0  0  0  0  0  0  0  0  0
   38.4521  -21.3896   36.0791 O   0  0  0  0  0  0  0  0  0  0  0  0
   39.4176  -22.2989   34.2520 N   0  0  0  0  0  0  0  0  0  0  0  0
   44.9708  -21.9215   37.9196 H   0  0  0  0  0  0  0  0  0  0  0  0
   41.8249  -19.6433   34.2078 H   0  0  0  0  0  0  0  0  0  0  0  0
   38.5192  -22.7064   33.8244 H   0  0  0  0  0  0  0  0  0  0  0  0
   38.7005  -25.7373   31.9192 C   0  0  0  0  0  0  0  0  0  0  0  0
   39.0174  -24.6430   32.8012 N   0  0  0  0  0  0  0  0  0  0  0  0
   40.3152  -24.1228   32.9049 C   0  0  0  0  0  0  0  0  0  0  0  0
   41.2248  -24.6161   32.2185 O   0  0  0  0  0  0  0  0  0  0  0  0
   38.2574  -24.2275   33.3792 H   0  0  0  0  0  0  0  0  0  0  0  0
   41.8871  -17.9443   36.5092 C   0  0  0  0  0  0  0  0  0  0  0  0
   42.7769  -17.0638   36.4744 O   0  0  0  0  0  0  0  0  0  0  0  0
   40.6005  -17.5234   36.8930 O   0  0  0  0  0  0  0  0  0  0  0  0
   40.4482  -17.4641   37.8909 H   0  0  0  0  0  0  0  0  0  0  0  0
   39.2855  -19.0409   33.9570 C   0  0  0  0  0  0  0  0  0  0  0  0
   37.9351  -19.5501   33.5843 C   0  0  0  0  0  0  0  0  0  0  0  0
   36.8440  -18.7255   34.1940 C   0  0  0  0  0  0  0  0  0  0  0  0
   35.5220  -18.9815   33.9943 C   0  0  0  0  0  0  0  0  0  0  0  0
   34.6030  -18.1457   34.6173 C   0  0  0  0  0  0  0  0  0  0  0  0
   34.9948  -17.0876   35.4144 C   0  0  0  0  0  0  0  0  0  0  0  0
   36.3339  -16.8406   35.6074 C   0  0  0  0  0  0  0  0  0  0  0  0
   37.2381  -17.6718   34.9878 C   0  0  0  0  0  0  0  0  0  0  0  0
 23 24  1  0  0  0
 24 25  1  0  0  0
 25 26  2  0  0  0
 25  1  1  0  0  0
  1  2  1  0  0  0
  2  3  1  0  0  0
  3  4  1  0  0  0
  4  5  2  0  0  0
  4  6  1  0  0  0
  6  7  1  0  0  0
  7  8  1  0  0  0
  8  9  1  0  0  0
  9 10  1  0  0  0
 10 11  2  0  0  0
 10 12  1  0  0  0
 12 13  1  0  0  0
 13 14  1  0  0  0
 14 28  1  0  0  0
 28 29  2  0  0  0
 28 30  1  0  0  0
 14 15  1  0  0  0
 15 16  1  0  0  0
 16 32  1  0  0  0
 32 33  1  0  0  0
 33 34  1  0  0  0
 34 35  2  0  0  0
 35 36  1  0  0  0
 36 37  2  0  0  0
 37 38  1  0  0  0
 38 39  2  0  0  0
 16 17  1  0  0  0
 17 18  2  0  0  0
 17 19  1  0  0  0
 19  1  1  0  0  0
 39 34  1  0  0  0
 24 27  1  0  0  0
  9 20  1  0  0  0
 30 31  1  0  0  0
 15 21  1  0  0  0
 19 22  1  0  0  0
M  END
> <minimizedAffinity>
-5.16727

> <CNNscore>
0.3881976008

> <CNNaffinity>
4.5562567711

> <CNN_VS>
1.7687278986

> <CNNaffinity_variance>
0.3101767004

$$$$
[H]OC(=O)[C@]1([H])N([H])[C@@]([H])(C([H])([H])C([H])([H])c2c([H])c([H])c([H])c([H])c2[H])C(=O)N([H])[C@]([H])(C(=O)N([H])C([H])([H])[H])C([H])([H])C([H])([H])C(=O)OC([H])([H])C([H])([H])N([H])C(=O)C([H])([H])C1([H])[H]


 39 40  0  0  0  0  0  0  0  0999 V2000
   35.2602  -22.7361   37.2069 C   0  0  0  0  0  0  0  0  0  0  0  0
   35.9395  -23.3340   38.3947 C   0  0  0  0  0  0  0  0  0  0  0  0
   35.1012  -24.1350   39.3279 C   0  0  0  0  0  0  0  0  0  0  0  0
   35.4829  -23.8277   40.7551 C   0  0  0  0  0  0  0  0  0  0  0  0
   34.7545  -22.9665   41.3569 O   0  0  0  0  0  0  0  0  0  0  0  0
   36.5322  -24.4064   41.4080 O   0  0  0  0  0  0  0  0  0  0  0  0
   37.8551  -24.5321   41.0203 C   0  0  0  0  0  0  0  0  0  0  0  0
   38.7657  -23.4127   41.5255 C   0  0  0  0  0  0  0  0  0  0  0  0
   39.9584  -23.4082   40.7242 N   0  0  0  0  0  0  0  0  0  0  0  0
   40.7911  -22.3009   40.4484 C   0  0  0  0  0  0  0  0  0  0  0  0
   42.0627  -22.4045   40.5499 O   0  0  0  0  0  0  0  0  0  0  0  0
   40.2949  -20.9546   40.0283 C   0  0  0  0  0  0  0  0  0  0  0  0
   39.1483  -21.0534   39.0761 C   0  0  0  0  0  0  0  0  0  0  0  0
   39.5239  -21.1125   37.6107 C   0  0  0  0  0  0  0  0  0  0  0  0
   38.3129  -21.1489   36.8435 N   0  0  0  0  0  0  0  0  0  0  0  0
   37.4149  -20.0802   36.8789 C   0  0  0  0  0  0  0  0  0  0  0  0
   36.1025  -20.3215   37.5405 C   0  0  0  0  0  0  0  0  0  0  0  0
   35.8266  -19.5046   38.4886 O   0  0  0  0  0  0  0  0  0  0  0  0
   35.1463  -21.2871   37.2815 N   0  0  0  0  0  0  0  0  0  0  0  0
   40.2560  -24.3310   40.2911 H   0  0  0  0  0  0  0  0  0  0  0  0
   38.4654  -21.6681   35.9821 H   0  0  0  0  0  0  0  0  0  0  0  0
   34.1438  -20.9427   37.1021 H   0  0  0  0  0  0  0  0  0  0  0  0
   32.6819  -25.3081   35.9985 C   0  0  0  0  0  0  0  0  0  0  0  0
   33.9272  -24.6425   36.2852 N   0  0  0  0  0  0  0  0  0  0  0  0
   33.9743  -23.3957   36.9248 C   0  0  0  0  0  0  0  0  0  0  0  0
   32.9136  -22.8419   37.2566 O   0  0  0  0  0  0  0  0  0  0  0  0
   34.8186  -25.1034   36.0074 H   0  0  0  0  0  0  0  0  0  0  0  0
   40.5081  -20.1015   37.2309 C   0  0  0  0  0  0  0  0  0  0  0  0
   40.3275  -18.8641   37.1653 O   0  0  0  0  0  0  0  0  0  0  0  0
   41.7940  -20.5678   36.9010 O   0  0  0  0  0  0  0  0  0  0  0  0
   41.9654  -20.6906   35.9120 H   0  0  0  0  0  0  0  0  0  0  0  0
   37.1805  -19.4321   35.5094 C   0  0  0  0  0  0  0  0  0  0  0  0
   37.7013  -20.2826   34.4016 C   0  0  0  0  0  0  0  0  0  0  0  0
   39.0665  -19.8493   33.9648 C   0  0  0  0  0  0  0  0  0  0  0  0
   39.4054  -18.5441   33.7785 C   0  0  0  0  0  0  0  0  0  0  0  0
   40.7061  -18.2679   33.3744 C   0  0  0  0  0  0  0  0  0  0  0  0
   41.6375  -19.2662   33.1635 C   0  0  0  0  0  0  0  0  0  0  0  0
   41.2811  -20.5806   33.3556 C   0  0  0  0  0  0  0  0  0  0  0  0
   39.9921  -20.8468   33.7556 C   0  0  0  0  0  0  0  0  0  0  0  0
 23 24  1  0  0  0
 24 25  1  0  0  0
 25 26  2  0  0  0
 25  1  1  0  0  0
  1  2  1  0  0  0
  2  3  1  0  0  0
  3  4  1  0  0  0
  4  5  2  0  0  0
  4  6  1  0  0  0
  6  7  1  0  0  0
  7  8  1  0  0  0
  8  9  1  0  0  0
  9 10  1  0  0  0
 10 11  2  0  0  0
 10 12  1  0  0  0
 12 13  1  0  0  0
 13 14  1  0  0  0
 14 28  1  0  0  0
 28 29  2  0  0  0
 28 30  1  0  0  0
 14 15  1  0  0  0
 15 16  1  0  0  0
 16 32  1  0  0  0
 32 33  1  0  0  0
 33 34  1  0  0  0
 34 35  2  0  0  0
 35 36  1  0  0  0
 36 37  2  0  0  0
 37 38  1  0  0  0
 38 39  2  0  0  0
 16 17  1  0  0  0
 17 18  2  0  0  0
 17 19  1  0  0  0
 19  1  1  0  0  0
 39 34  1  0  0  0
 24 27  1  0  0  0
  9 20  1  0  0  0
 30 31  1  0  0  0
 15 21  1  0  0  0
 19 22  1  0  0  0
M  END
> <minimizedAffinity>
-4.04908

> <CNNscore>
0.3692981601

> <CNNaffinity>
4.3066759109

> <CNN_VS>
1.5904475451

> <CNNaffinity_variance>
0.5626848340

$$$$
[H]OC(=O)[C@]1([H])N([H])[C@@]([H])(C([H])([H])C([H])([H])c2c([H])c([H])c([H])c([H])c2[H])C(=O)N([H])[C@]([H])(C(=O)N([H])C([H])([H])[H])C([H])([H])C([H])([H])C(=O)OC([H])([H])C([H])([H])N([H])C(=O)C([H])([H])C1([H])[H]


 39 40  0  0  0  0  0  0  0  0999 V2000
   37.2648  -19.3689   36.3379 C   0  0  0  0  0  0  0  0  0  0  0  0
   38.5724  -18.9426   35.7564 C   0  0  0  0  0  0  0  0  0  0  0  0
   38.5555  -18.3848   34.3766 C   0  0  0  0  0  0  0  0  0  0  0  0
   39.7335  -18.9114   33.5943 C   0  0  0  0  0  0  0  0  0  0  0  0
   39.5010  -19.9176   32.8408 O   0  0  0  0  0  0  0  0  0  0  0  0
   40.9896  -18.3814   33.6531 O   0  0  0  0  0  0  0  0  0  0  0  0
   41.7769  -18.0906   34.7540 C   0  0  0  0  0  0  0  0  0  0  0  0
   42.7386  -19.2109   35.1507 C   0  0  0  0  0  0  0  0  0  0  0  0
   43.1572  -18.9841   36.5065 N   0  0  0  0  0  0  0  0  0  0  0  0
   43.5671  -19.9597   37.4423 C   0  0  0  0  0  0  0  0  0  0  0  0
   44.6217  -19.7814   38.1452 O   0  0  0  0  0  0  0  0  0  0  0  0
   42.8437  -21.2432   37.6965 C   0  0  0  0  0  0  0  0  0  0  0  0
   41.3611  -21.0625   37.6777 C   0  0  0  0  0  0  0  0  0  0  0  0
   40.7318  -20.7162   39.0105 C   0  0  0  0  0  0  0  0  0  0  0  0
   39.3125  -20.6345   38.8230 N   0  0  0  0  0  0  0  0  0  0  0  0
   38.5802  -21.7564   38.4293 C   0  0  0  0  0  0  0  0  0  0  0  0
   37.9939  -21.7349   37.0603 C   0  0  0  0  0  0  0  0  0  0  0  0
   38.3326  -22.7254   36.3210 O   0  0  0  0  0  0  0  0  0  0  0  0
   37.1436  -20.8125   36.4773 N   0  0  0  0  0  0  0  0  0  0  0  0
   43.1657  -17.9796   36.8505 H   0  0  0  0  0  0  0  0  0  0  0  0
   38.9164  -19.9606   39.4741 H   0  0  0  0  0  0  0  0  0  0  0  0
   36.2350  -21.1933   36.0467 H   0  0  0  0  0  0  0  0  0  0  0  0
   34.2680  -18.9440   33.9796 C   0  0  0  0  0  0  0  0  0  0  0  0
   35.3848  -19.5098   34.6927 N   0  0  0  0  0  0  0  0  0  0  0  0
   36.1276  -18.7674   35.6217 C   0  0  0  0  0  0  0  0  0  0  0  0
   35.8191  -17.5848   35.8411 O   0  0  0  0  0  0  0  0  0  0  0  0
   35.6471  -20.5009   34.5105 H   0  0  0  0  0  0  0  0  0  0  0  0
   41.1989  -21.5675   40.1023 C   0  0  0  0  0  0  0  0  0  0  0  0
   41.0551  -22.8075   40.2030 O   0  0  0  0  0  0  0  0  0  0  0  0
   41.8796  -20.9260   41.1535 O   0  0  0  0  0  0  0  0  0  0  0  0
   41.3107  -20.6996   41.9583 H   0  0  0  0  0  0  0  0  0  0  0  0
   37.4999  -22.1665   39.4369 C   0  0  0  0  0  0  0  0  0  0  0  0
   37.1690  -23.6159   39.3297 C   0  0  0  0  0  0  0  0  0  0  0  0
   35.7525  -23.8304   38.8937 C   0  0  0  0  0  0  0  0  0  0  0  0
   35.2934  -25.0242   38.4278 C   0  0  0  0  0  0  0  0  0  0  0  0
   33.9563  -25.0992   38.0564 C   0  0  0  0  0  0  0  0  0  0  0  0
   33.1064  -24.0139   38.1481 C   0  0  0  0  0  0  0  0  0  0  0  0
   33.5840  -22.8138   38.6205 C   0  0  0  0  0  0  0  0  0  0  0  0
   34.9084  -22.7467   38.9865 C   0  0  0  0  0  0  0  0  0  0  0  0
 23 24  1  0  0  0
 24 25  1  0  0  0
 25 26  2  0  0  0
 25  1  1  0  0  0
  1  2  1  0  0  0
  2  3  1  0  0  0
  3  4  1  0  0  0
  4  5  2  0  0  0
  4  6  1  0  0  0
  6  7  1  0  0  0
  7  8  1  0  0  0
  8  9  1  0  0  0
  9 10  1  0  0  0
 10 11  2  0  0  0
 10 12  1  0  0  0
 12 13  1  0  0  0
 13 14  1  0  0  0
 14 28  1  0  0  0
 28 29  2  0  0  0
 28 30  1  0  0  0
 14 15  1  0  0  0
 15 16  1  0  0  0
 16 32  1  0  0  0
 32 33  1  0  0  0
 33 34  1  0  0  0
 34 35  2  0  0  0
 35 36  1  0  0  0
 36 37  2  0  0  0
 37 38  1  0  0  0
 38 39  2  0  0  0
 16 17  1  0  0  0
 17 18  2  0  0  0
 17 19  1  0  0  0
 19  1  1  0  0  0
 39 34  1  0  0  0
 24 27  1  0  0  0
  9 20  1  0  0  0
 30 31  1  0  0  0
 15 21  1  0  0  0
 19 22  1  0  0  0
M  END
> <minimizedAffinity>
-4.34552

> <CNNscore>
0.3501096368

> <CNNaffinity>
4.7995157242

> <CNN_VS>
1.6803567410

> <CNNaffinity_variance>
0.5880065560

$$$$
[H]c1nc2n(n1)C([H])(c1sc([H])c([H])c1[H])C([H])([H])C([H])(c1c([H])c([H])c(Cl)c(Cl)c1[H])N2[H]


 23 26  0  0  0  0  0  0  0  0999 V2000
   33.5680  -18.8596   35.6520 C   0  0  0  0  0  0  0  0  0  0  0  0
   34.3055  -18.9643   34.3624 C   0  0  0  0  0  0  0  0  0  0  0  0
   35.6229  -18.2814   34.4077 C   0  0  0  0  0  0  0  0  0  0  0  0
   35.6456  -17.0669   35.1594 N   0  0  0  0  0  0  0  0  0  0  0  0
   36.5929  -16.1615   35.2935 N   0  0  0  0  0  0  0  0  0  0  0  0
   36.1925  -15.1684   36.0973 C   0  0  0  0  0  0  0  0  0  0  0  0
   34.9411  -15.4949   36.4640 N   0  0  0  0  0  0  0  0  0  0  0  0
   34.5755  -16.6573   35.9038 C   0  0  0  0  0  0  0  0  0  0  0  0
   33.3963  -17.4506   35.9468 N   0  0  0  0  0  0  0  0  0  0  0  0
   32.5066  -16.9811   36.1813 H   0  0  0  0  0  0  0  0  0  0  0  0
   28.4348  -21.9541   35.8012 Cl  0  0  0  0  0  0  0  0  0  0  0  0
   29.9229  -21.0397   35.7465 C   0  0  0  0  0  0  0  0  0  0  0  0
   29.9879  -19.8876   34.9982 C   0  0  0  0  0  0  0  0  0  0  0  0
   31.1936  -19.1751   34.9731 C   0  0  0  0  0  0  0  0  0  0  0  0
   32.2943  -19.5950   35.6678 C   0  0  0  0  0  0  0  0  0  0  0  0
   32.2054  -20.7514   36.4100 C   0  0  0  0  0  0  0  0  0  0  0  0
   31.0147  -21.4890   36.4577 C   0  0  0  0  0  0  0  0  0  0  0  0
   30.8868  -22.9607   37.3966 Cl  0  0  0  0  0  0  0  0  0  0  0  0
   36.7213  -19.1838   34.9178 C   0  0  0  0  0  0  0  0  0  0  0  0
   36.8576  -19.6984   36.1754 C   0  0  0  0  0  0  0  0  0  0  0  0
   37.9162  -20.4807   36.4146 C   0  0  0  0  0  0  0  0  0  0  0  0
   38.7805  -20.7023   35.3733 C   0  0  0  0  0  0  0  0  0  0  0  0
   38.0818  -19.8099   34.1003 S   0  0  0  0  0  0  0  0  0  0  0  0
 11 12  1  0  0  0
 12 13  2  0  0  0
 13 14  1  0  0  0
 14 15  2  0  0  0
 15  1  1  0  0  0
  1  2  1  0  0  0
  2  3  1  0  0  0
  3 19  1  0  0  0
 19 20  2  0  0  0
 20 21  1  0  0  0
 21 22  2  0  0  0
 22 23  1  0  0  0
  3  4  1  0  0  0
  4  5  1  0  0  0
  5  6  2  0  0  0
  6  7  1  0  0  0
  7  8  2  0  0  0
  8  9  1  0  0  0
 15 16  1  0  0  0
 16 17  2  0  0  0
 17 18  1  0  0  0
 17 12  1  0  0  0
  9  1  1  0  0  0
 23 19  1  0  0  0
  8  4  1  0  0  0
  9 10  1  0  0  0
M  END
> <minimizedAffinity>
-5.81368

> <CNNscore>
0.3228336871

> <CNNaffinity>
4.9065551758

> <CNN_VS>
1.5840013027

> <CNNaffinity_variance>
0.3086337745

$$$$
[H]c1nc2n(n1)C([H])(c1sc([H])c([H])c1[H])C([H])([H])C([H])(c1c([H])c([H])c(Cl)c(Cl)c1[H])N2[H]


 23 26  0  0  0  0  0  0  0  0999 V2000
   39.0542  -20.4609   37.5524 C   0  0  0  0  0  0  0  0  0  0  0  0
   38.9820  -20.8555   38.9866 C   0  0  0  0  0  0  0  0  0  0  0  0
   40.2415  -21.4787   39.4654 C   0  0  0  0  0  0  0  0  0  0  0  0
   40.8963  -22.3196   38.5141 N   0  0  0  0  0  0  0  0  0  0  0  0
   41.9391  -23.1129   38.6488 N   0  0  0  0  0  0  0  0  0  0  0  0
   42.2234  -23.7266   37.4931 C   0  0  0  0  0  0  0  0  0  0  0  0
   41.3040  -23.2781   36.6209 N   0  0  0  0  0  0  0  0  0  0  0  0
   40.4731  -22.4111   37.2182 C   0  0  0  0  0  0  0  0  0  0  0  0
   39.3515  -21.6532   36.7831 N   0  0  0  0  0  0  0  0  0  0  0  0
   38.8281  -21.9939   35.9604 H   0  0  0  0  0  0  0  0  0  0  0  0
   34.2230  -17.5931   35.4587 Cl  0  0  0  0  0  0  0  0  0  0  0  0
   35.6216  -18.4335   36.0843 C   0  0  0  0  0  0  0  0  0  0  0  0
   35.5562  -19.0432   37.3153 C   0  0  0  0  0  0  0  0  0  0  0  0
   36.6927  -19.7096   37.7913 C   0  0  0  0  0  0  0  0  0  0  0  0
   37.8518  -19.7663   37.0676 C   0  0  0  0  0  0  0  0  0  0  0  0
   37.8934  -19.1484   35.8376 C   0  0  0  0  0  0  0  0  0  0  0  0
   36.7751  -18.4729   35.3307 C   0  0  0  0  0  0  0  0  0  0  0  0
   36.8132  -17.6828   33.7693 Cl  0  0  0  0  0  0  0  0  0  0  0  0
   41.2337  -20.4572   39.9684 C   0  0  0  0  0  0  0  0  0  0  0  0
   41.3844  -20.0045   41.2480 C   0  0  0  0  0  0  0  0  0  0  0  0
   42.3328  -19.0885   41.4746 C   0  0  0  0  0  0  0  0  0  0  0  0
   43.0783  -18.6782   40.3994 C   0  0  0  0  0  0  0  0  0  0  0  0
   42.4265  -19.5871   39.1133 S   0  0  0  0  0  0  0  0  0  0  0  0
 11 12  1  0  0  0
 12 13  2  0  0  0
 13 14  1  0  0  0
 14 15  2  0  0  0
 15  1  1  0  0  0
  1  2  1  0  0  0
  2  3  1  0  0  0
  3 19  1  0  0  0
 19 20  2  0  0  0
 20 21  1  0  0  0
 21 22  2  0  0  0
 22 23  1  0  0  0
  3  4  1  0  0  0
  4  5  1  0  0  0
  5  6  2  0  0  0
  6  7  1  0  0  0
  7  8  2  0  0  0
  8  9  1  0  0  0
 15 16  1  0  0  0
 16 17  2  0  0  0
 17 18  1  0  0  0
 17 12  1  0  0  0
  9  1  1  0  0  0
 23 19  1  0  0  0
  8  4  1  0  0  0
  9 10  1  0  0  0
M  END
> <minimizedAffinity>
-4.24824

> <CNNscore>
0.3155418932

> <CNNaffinity>
4.6515445709

> <CNN_VS>
1.4677572250

> <CNNaffinity_variance>
0.1554788351

$$$$
[H]c1nc2n(n1)C([H])(c1sc([H])c([H])c1[H])C([H])([H])C([H])(c1c([H])c([H])c(Cl)c(Cl)c1[H])N2[H]


 23 26  0  0  0  0  0  0  0  0999 V2000
   34.4054  -13.0661   36.3172 C   0  0  0  0  0  0  0  0  0  0  0  0
   34.1583  -12.7382   37.7487 C   0  0  0  0  0  0  0  0  0  0  0  0
   33.6779  -11.3459   37.9347 C   0  0  0  0  0  0  0  0  0  0  0  0
   34.2713  -10.3829   37.0622 N   0  0  0  0  0  0  0  0  0  0  0  0
   34.1743   -9.0694   37.0455 N   0  0  0  0  0  0  0  0  0  0  0  0
   34.9031   -8.5504   36.0494 C   0  0  0  0  0  0  0  0  0  0  0  0
   35.4659   -9.6068   35.4375 N   0  0  0  0  0  0  0  0  0  0  0  0
   35.0968  -10.7484   36.0367 C   0  0  0  0  0  0  0  0  0  0  0  0
   35.3841  -12.1229   35.8129 N   0  0  0  0  0  0  0  0  0  0  0  0
   36.2570  -12.3589   35.3137 H   0  0  0  0  0  0  0  0  0  0  0  0
   35.8952  -18.7975   35.3787 Cl  0  0  0  0  0  0  0  0  0  0  0  0
   35.4790  -17.1227   35.6537 C   0  0  0  0  0  0  0  0  0  0  0  0
   36.4757  -16.1977   35.8600 C   0  0  0  0  0  0  0  0  0  0  0  0
   36.1125  -14.8625   36.0777 C   0  0  0  0  0  0  0  0  0  0  0  0
   34.8044  -14.4635   36.0896 C   0  0  0  0  0  0  0  0  0  0  0  0
   33.8239  -15.4074   35.8806 C   0  0  0  0  0  0  0  0  0  0  0  0
   34.1515  -16.7520   35.6596 C   0  0  0  0  0  0  0  0  0  0  0  0
   32.9161  -17.9630   35.3927 Cl  0  0  0  0  0  0  0  0  0  0  0  0
   32.1758  -11.2359   37.8226 C   0  0  0  0  0  0  0  0  0  0  0  0
   31.2500  -12.2083   38.0727 C   0  0  0  0  0  0  0  0  0  0  0  0
   29.9601  -11.8945   37.9072 C   0  0  0  0  0  0  0  0  0  0  0  0
   29.6726  -10.6175   37.4985 C   0  0  0  0  0  0  0  0  0  0  0  0
   31.2143   -9.9040   37.3610 S   0  0  0  0  0  0  0  0  0  0  0  0
 11 12  1  0  0  0
 12 13  2  0  0  0
 13 14  1  0  0  0
 14 15  2  0  0  0
 15  1  1  0  0  0
  1  2  1  0  0  0
  2  3  1  0  0  0
  3 19  1  0  0  0
 19 20  2  0  0  0
 20 21  1  0  0  0
 21 22  2  0  0  0
 22 23  1  0  0  0
  3  4  1  0  0  0
  4  5  1  0  0  0
  5  6  2  0  0  0
  6  7  1  0  0  0
  7  8  2  0  0  0
  8  9  1  0  0  0
 15 16  1  0  0  0
 16 17  2  0  0  0
 17 18  1  0  0  0
 17 12  1  0  0  0
  9  1  1  0  0  0
 23 19  1  0  0  0
  8  4  1  0  0  0
  9 10  1  0  0  0
M  END
> <minimizedAffinity>
-8.11881

> <CNNscore>
0.3130532801

> <CNNaffinity>
6.0601339340

> <CNN_VS>
1.8971447945

> <CNNaffinity_variance>
0.2945787311

$$$$
[H]c1nc2n(n1)C([H])(c1sc([H])c([H])c1[H])C([H])([H])C([H])(c1c([H])c([H])c(Cl)c(Cl)c1[H])N2[H]


 23 26  0  0  0  0  0  0  0  0999 V2000
   35.2613  -17.4802   36.6050 C   0  0  0  0  0  0  0  0  0  0  0  0
   35.3865  -18.1503   35.2810 C   0  0  0  0  0  0  0  0  0  0  0  0
   35.2616  -19.6262   35.3805 C   0  0  0  0  0  0  0  0  0  0  0  0
   35.8558  -20.2034   36.5443 N   0  0  0  0  0  0  0  0  0  0  0  0
   36.0392  -21.4651   36.8749 N   0  0  0  0  0  0  0  0  0  0  0  0
   36.6431  -21.5628   38.0659 C   0  0  0  0  0  0  0  0  0  0  0  0
   36.8315  -20.2946   38.4702 N   0  0  0  0  0  0  0  0  0  0  0  0
   36.3580  -19.4348   37.5563 C   0  0  0  0  0  0  0  0  0  0  0  0
   36.2945  -18.0171   37.4687 N   0  0  0  0  0  0  0  0  0  0  0  0
   36.9767  -17.4682   38.0166 H   0  0  0  0  0  0  0  0  0  0  0  0
   35.5472  -11.4965   36.3558 Cl  0  0  0  0  0  0  0  0  0  0  0  0
   35.4464  -13.2398   36.4221 C   0  0  0  0  0  0  0  0  0  0  0  0
   34.2826  -13.8699   36.0482 C   0  0  0  0  0  0  0  0  0  0  0  0
   34.2306  -15.2683   36.1115 C   0  0  0  0  0  0  0  0  0  0  0  0
   35.2989  -16.0116   36.5320 C   0  0  0  0  0  0  0  0  0  0  0  0
   36.4536  -15.3585   36.9012 C   0  0  0  0  0  0  0  0  0  0  0  0
   36.5404  -13.9608   36.8502 C   0  0  0  0  0  0  0  0  0  0  0  0
   38.0013  -13.1169   37.3166 Cl  0  0  0  0  0  0  0  0  0  0  0  0
   33.8267  -20.0892   35.2927 C   0  0  0  0  0  0  0  0  0  0  0  0
   33.0851  -20.2887   34.1634 C   0  0  0  0  0  0  0  0  0  0  0  0
   31.8220  -20.7027   34.3154 C   0  0  0  0  0  0  0  0  0  0  0  0
   31.3743  -20.8934   35.5974 C   0  0  0  0  0  0  0  0  0  0  0  0
   32.7341  -20.4873   36.5414 S   0  0  0  0  0  0  0  0  0  0  0  0
 11 12  1  0  0  0
 12 13  2  0  0  0
 13 14  1  0  0  0
 14 15  2  0  0  0
 15  1  1  0  0  0
  1  2  1  0  0  0
  2  3  1  0  0  0
  3 19  1  0  0  0
 19 20  2  0  0  0
 20 21  1  0  0  0
 21 22  2  0  0  0
 22 23  1  0  0  0
  3  4  1  0  0  0
  4  5  1  0  0  0
  5  6  2  0  0  0
  6  7  1  0  0  0
  7  8  2  0  0  0
  8  9  1  0  0  0
 15 16  1  0  0  0
 16 17  2  0  0  0
 17 18  1  0  0  0
 17 12  1  0  0  0
  9  1  1  0  0  0
 23 19  1  0  0  0
  8  4  1  0  0  0
  9 10  1  0  0  0
M  END
> <minimizedAffinity>
-6.56894

> <CNNscore>
0.2421305776

> <CNNaffinity>
5.0141234398

> <CNN_VS>
1.2140725851

> <CNNaffinity_variance>
0.3711773157

$$$$
[H]c1nc2n(n1)C([H])(c1sc([H])c([H])c1[H])C([H])([H])C([H])(c1c([H])c([H])c(Cl)c(Cl)c1[H])N2[H]


 23 26  0  0  0  0  0  0  0  0999 V2000
   36.3369  -17.9602   37.1524 C   0  0  0  0  0  0  0  0  0  0  0  0
   35.2576  -18.8477   36.6374 C   0  0  0  0  0  0  0  0  0  0  0  0
   35.5002  -20.2769   36.9574 C   0  0  0  0  0  0  0  0  0  0  0  0
   36.8677  -20.6847   36.8909 N   0  0  0  0  0  0  0  0  0  0  0  0
   37.4087  -21.8820   36.9838 N   0  0  0  0  0  0  0  0  0  0  0  0
   38.7405  -21.8139   36.8633 C   0  0  0  0  0  0  0  0  0  0  0  0
   39.0119  -20.5088   36.6892 N   0  0  0  0  0  0  0  0  0  0  0  0
   37.8811  -19.7879   36.7014 C   0  0  0  0  0  0  0  0  0  0  0  0
   37.5869  -18.4033   36.5669 N   0  0  0  0  0  0  0  0  0  0  0  0
   38.2707  -17.8104   36.0691 H   0  0  0  0  0  0  0  0  0  0  0  0
   35.4426  -12.0961   36.2801 Cl  0  0  0  0  0  0  0  0  0  0  0  0
   35.6868  -13.8088   36.5264 C   0  0  0  0  0  0  0  0  0  0  0  0
   34.7198  -14.7000   36.1238 C   0  0  0  0  0  0  0  0  0  0  0  0
   34.9428  -16.0669   36.3339 C   0  0  0  0  0  0  0  0  0  0  0  0
   36.0869  -16.5289   36.9237 C   0  0  0  0  0  0  0  0  0  0  0  0
   37.0409  -15.6177   37.3185 C   0  0  0  0  0  0  0  0  0  0  0  0
   36.8507  -14.2430   37.1236 C   0  0  0  0  0  0  0  0  0  0  0  0
   38.0543  -13.0731   37.6203 Cl  0  0  0  0  0  0  0  0  0  0  0  0
   34.9470  -20.6659   38.3078 C   0  0  0  0  0  0  0  0  0  0  0  0
   35.3680  -20.2361   39.5338 C   0  0  0  0  0  0  0  0  0  0  0  0
   34.7330  -20.7132   40.6104 C   0  0  0  0  0  0  0  0  0  0  0  0
   33.7079  -21.5976   40.3934 C   0  0  0  0  0  0  0  0  0  0  0  0
   33.6699  -21.7292   38.6945 S   0  0  0  0  0  0  0  0  0  0  0  0
 11 12  1  0  0  0
 12 13  2  0  0  0
 13 14  1  0  0  0
 14 15  2  0  0  0
 15  1  1  0  0  0
  1  2  1  0  0  0
  2  3  1  0  0  0
  3 19  1  0  0  0
 19 20  2  0  0  0
 20 21  1  0  0  0
 21 22  2  0  0  0
 22 23  1  0  0  0
  3  4  1  0  0  0
  4  5  1  0  0  0
  5  6  2  0  0  0
  6  7  1  0  0  0
  7  8  2  0  0  0
  8  9  1  0  0  0
 15 16  1  0  0  0
 16 17  2  0  0  0
 17 18  1  0  0  0
 17 12  1  0  0  0
  9  1  1  0  0  0
 23 19  1  0  0  0
  8  4  1  0  0  0
  9 10  1  0  0  0
M  END
> <minimizedAffinity>
-6.55498

> <CNNscore>
0.2374713272

> <CNNaffinity>
4.9292035103

> <CNN_VS>
1.1705445051

> <CNNaffinity_variance>
0.4066572785

$$$$
[H]c1nc2n(n1)C([H])(c1sc([H])c([H])c1[H])C([H])([H])C([H])(c1c([H])c([H])c(Cl)c(Cl)c1[H])N2[H]


 23 26  0  0  0  0  0  0  0  0999 V2000
   34.6634  -15.9963   35.7212 C   0  0  0  0  0  0  0  0  0  0  0  0
   35.3657  -16.8759   36.6963 C   0  0  0  0  0  0  0  0  0  0  0  0
   35.5450  -18.2577   36.1839 C   0  0  0  0  0  0  0  0  0  0  0  0
   34.4537  -18.7590   35.4102 N   0  0  0  0  0  0  0  0  0  0  0  0
   34.2304  -19.9635   34.9263 N   0  0  0  0  0  0  0  0  0  0  0  0
   33.0728  -20.0001   34.2546 C   0  0  0  0  0  0  0  0  0  0  0  0
   32.5765  -18.7536   34.3400 N   0  0  0  0  0  0  0  0  0  0  0  0
   33.4025  -17.9663   35.0446 C   0  0  0  0  0  0  0  0  0  0  0  0
   33.3767  -16.5988   35.4333 N   0  0  0  0  0  0  0  0  0  0  0  0
   32.4583  -16.1287   35.4852 H   0  0  0  0  0  0  0  0  0  0  0  0
   34.0309  -10.3238   37.5571 Cl  0  0  0  0  0  0  0  0  0  0  0  0
   34.2332  -11.9737   37.0181 C   0  0  0  0  0  0  0  0  0  0  0  0
   35.4562  -12.3923   36.5485 C   0  0  0  0  0  0  0  0  0  0  0  0
   35.5889  -13.7203   36.1232 C   0  0  0  0  0  0  0  0  0  0  0  0
   34.5417  -14.5990   36.1642 C   0  0  0  0  0  0  0  0  0  0  0  0
   33.3268  -14.1571   36.6383 C   0  0  0  0  0  0  0  0  0  0  0  0
   33.1585  -12.8351   37.0720 C   0  0  0  0  0  0  0  0  0  0  0  0
   31.6203  -12.2591   37.6770 Cl  0  0  0  0  0  0  0  0  0  0  0  0
   36.8152  -18.4133   35.3818 C   0  0  0  0  0  0  0  0  0  0  0  0
   37.0406  -18.0133   34.0956 C   0  0  0  0  0  0  0  0  0  0  0  0
   38.2487  -18.2535   33.5736 C   0  0  0  0  0  0  0  0  0  0  0  0
   39.1648  -18.8837   34.3760 C   0  0  0  0  0  0  0  0  0  0  0  0
   38.3041  -19.1169   35.8285 S   0  0  0  0  0  0  0  0  0  0  0  0
 11 12  1  0  0  0
 12 13  2  0  0  0
 13 14  1  0  0  0
 14 15  2  0  0  0
 15  1  1  0  0  0
  1  2  1  0  0  0
  2  3  1  0  0  0
  3 19  1  0  0  0
 19 20  2  0  0  0
 20 21  1  0  0  0
 21 22  2  0  0  0
 22 23  1  0  0  0
  3  4  1  0  0  0
  4  5  1  0  0  0
  5  6  2  0  0  0
  6  7  1  0  0  0
  7  8  2  0  0  0
  8  9  1  0  0  0
 15 16  1  0  0  0
 16 17  2  0  0  0
 17 18  1  0  0  0
 17 12  1  0  0  0
  9  1  1  0  0  0
 23 19  1  0  0  0
  8  4  1  0  0  0
  9 10  1  0  0  0
M  END
> <minimizedAffinity>
-7.72436

> <CNNscore>
0.2152565718

> <CNNaffinity>
5.3151459694

> <CNN_VS>
1.1441200972

> <CNNaffinity_variance>
0.3683021665

$$$$
[H]c1nc2n(n1)C([H])(c1sc([H])c([H])c1[H])C([H])([H])C([H])(c1c([H])c([H])c(Cl)c(Cl)c1[H])N2[H]


 23 26  0  0  0  0  0  0  0  0999 V2000
   33.3675  -21.0085   36.7712 C   0  0  0  0  0  0  0  0  0  0  0  0
   33.0588  -22.3221   36.1411 C   0  0  0  0  0  0  0  0  0  0  0  0
   32.0599  -23.1000   36.9164 C   0  0  0  0  0  0  0  0  0  0  0  0
   32.1785  -22.9865   38.3354 N   0  0  0  0  0  0  0  0  0  0  0  0
   31.5545  -23.6306   39.3001 N   0  0  0  0  0  0  0  0  0  0  0  0
   31.9732  -23.2120   40.5011 C   0  0  0  0  0  0  0  0  0  0  0  0
   32.8955  -22.2685   40.2432 N   0  0  0  0  0  0  0  0  0  0  0  0
   33.0448  -22.1064   38.9204 C   0  0  0  0  0  0  0  0  0  0  0  0
   33.8588  -21.2681   38.1102 N   0  0  0  0  0  0  0  0  0  0  0  0
   34.7340  -20.9030   38.5197 H   0  0  0  0  0  0  0  0  0  0  0  0
   37.2311  -17.6249   33.6773 Cl  0  0  0  0  0  0  0  0  0  0  0  0
   36.0930  -18.6102   34.5648 C   0  0  0  0  0  0  0  0  0  0  0  0
   34.8814  -18.9301   33.9981 C   0  0  0  0  0  0  0  0  0  0  0  0
   33.9891  -19.7214   34.7327 C   0  0  0  0  0  0  0  0  0  0  0  0
   34.2927  -20.1773   35.9859 C   0  0  0  0  0  0  0  0  0  0  0  0
   35.5118  -19.8442   36.5326 C   0  0  0  0  0  0  0  0  0  0  0  0
   36.4285  -19.0544   35.8258 C   0  0  0  0  0  0  0  0  0  0  0  0
   37.9818  -18.6228   36.5078 Cl  0  0  0  0  0  0  0  0  0  0  0  0
   30.6403  -22.7659   36.5238 C   0  0  0  0  0  0  0  0  0  0  0  0
   30.0617  -21.5301   36.4695 C   0  0  0  0  0  0  0  0  0  0  0  0
   28.7793  -21.4611   36.0944 C   0  0  0  0  0  0  0  0  0  0  0  0
   28.1492  -22.6414   35.7941 C   0  0  0  0  0  0  0  0  0  0  0  0
   29.3714  -23.8022   36.0470 S   0  0  0  0  0  0  0  0  0  0  0  0
 11 12  1  0  0  0
 12 13  2  0  0  0
 13 14  1  0  0  0
 14 15  2  0  0  0
 15  1  1  0  0  0
  1  2  1  0  0  0
  2  3  1  0  0  0
  3 19  1  0  0  0
 19 20  2  0  0  0
 20 21  1  0  0  0
 21 22  2  0  0  0
 22 23  1  0  0  0
  3  4  1  0  0  0
  4  5  1  0  0  0
  5  6  2  0  0  0
  6  7  1  0  0  0
  7  8  2  0  0  0
  8  9  1  0  0  0
 15 16  1  0  0  0
 16 17  2  0  0  0
 17 18  1  0  0  0
 17 12  1  0  0  0
  9  1  1  0  0  0
 23 19  1  0  0  0
  8  4  1  0  0  0
  9 10  1  0  0  0
M  END
> <minimizedAffinity>
-4.71421

> <CNNscore>
0.2115825117

> <CNNaffinity>
4.5025272369

> <CNN_VS>
0.9526560307

> <CNNaffinity_variance>
0.1529196948

$$$$
[H]c1nc2n(n1)C([H])(c1sc([H])c([H])c1[H])C([H])([H])C([H])(c1c([H])c([H])c(Cl)c(Cl)c1[H])N2[H]


 23 26  0  0  0  0  0  0  0  0999 V2000
   32.2670  -20.7196   36.0692 C   0  0  0  0  0  0  0  0  0  0  0  0
   32.3649  -21.4390   37.3695 C   0  0  0  0  0  0  0  0  0  0  0  0
   31.5117  -22.6533   37.4093 C   0  0  0  0  0  0  0  0  0  0  0  0
   30.2543  -22.5273   36.7431 N   0  0  0  0  0  0  0  0  0  0  0  0
   29.2240  -23.3467   36.6987 N   0  0  0  0  0  0  0  0  0  0  0  0
   28.2378  -22.8324   35.9532 C   0  0  0  0  0  0  0  0  0  0  0  0
   28.7006  -21.6436   35.5289 N   0  0  0  0  0  0  0  0  0  0  0  0
   29.9382  -21.4267   35.9977 C   0  0  0  0  0  0  0  0  0  0  0  0
   30.8758  -20.3659   35.8664 N   0  0  0  0  0  0  0  0  0  0  0  0
   30.5130  -19.4259   35.6386 H   0  0  0  0  0  0  0  0  0  0  0  0
   36.0081  -16.0463   35.7331 Cl  0  0  0  0  0  0  0  0  0  0  0  0
   34.9057  -17.3994   35.8201 C   0  0  0  0  0  0  0  0  0  0  0  0
   33.7008  -17.3404   35.1597 C   0  0  0  0  0  0  0  0  0  0  0  0
   32.8372  -18.4398   35.2472 C   0  0  0  0  0  0  0  0  0  0  0  0
   33.1619  -19.5569   35.9663 C   0  0  0  0  0  0  0  0  0  0  0  0
   34.3738  -19.5930   36.6191 C   0  0  0  0  0  0  0  0  0  0  0  0
   35.2620  -18.5110   36.5530 C   0  0  0  0  0  0  0  0  0  0  0  0
   36.8057  -18.5424   37.3776 Cl  0  0  0  0  0  0  0  0  0  0  0  0
   32.2215  -23.8728   36.8710 C   0  0  0  0  0  0  0  0  0  0  0  0
   31.8253  -24.6789   35.8423 C   0  0  0  0  0  0  0  0  0  0  0  0
   32.6103  -25.7159   35.5285 C   0  0  0  0  0  0  0  0  0  0  0  0
   33.7524  -25.8845   36.2683 C   0  0  0  0  0  0  0  0  0  0  0  0
   33.6865  -24.5887   37.3737 S   0  0  0  0  0  0  0  0  0  0  0  0
 11 12  1  0  0  0
 12 13  2  0  0  0
 13 14  1  0  0  0
 14 15  2  0  0  0
 15  1  1  0  0  0
  1  2  1  0  0  0
  2  3  1  0  0  0
  3 19  1  0  0  0
 19 20  2  0  0  0
 20 21  1  0  0  0
 21 22  2  0  0  0
 22 23  1  0  0  0
  3  4  1  0  0  0
  4  5  1  0  0  0
  5  6  2  0  0  0
  6  7  1  0  0  0
  7  8  2  0  0  0
  8  9  1  0  0  0
 15 16  1  0  0  0
 16 17  2  0  0  0
 17 18  1  0  0  0
 17 12  1  0  0  0
  9  1  1  0  0  0
 23 19  1  0  0  0
  8  4  1  0  0  0
  9 10  1  0  0  0
M  END
> <minimizedAffinity>
-4.66952

> <CNNscore>
0.2105253786

> <CNNaffinity>
4.4409322739

> <CNN_VS>
0.9349289536

> <CNNaffinity_variance>
0.2564782500

$$$$
[H]c1nc2n(n1)C([H])(c1sc([H])c([H])c1[H])C([H])([H])C([H])(c1c([H])c([H])c(Cl)c(Cl)c1[H])N2[H]


 23 26  0  0  0  0  0  0  0  0999 V2000
   39.1614  -20.0504   36.5618 C   0  0  0  0  0  0  0  0  0  0  0  0
   38.7957  -19.9935   35.1193 C   0  0  0  0  0  0  0  0  0  0  0  0
   39.9874  -19.9324   34.2360 C   0  0  0  0  0  0  0  0  0  0  0  0
   41.0710  -19.1502   34.7407 N   0  0  0  0  0  0  0  0  0  0  0  0
   42.2004  -18.7845   34.1701 N   0  0  0  0  0  0  0  0  0  0  0  0
   42.9399  -18.0460   35.0071 C   0  0  0  0  0  0  0  0  0  0  0  0
   42.2168  -17.9648   36.1376 N   0  0  0  0  0  0  0  0  0  0  0  0
   41.0619  -18.6336   36.0057 C   0  0  0  0  0  0  0  0  0  0  0  0
   39.9518  -18.8727   36.8614 N   0  0  0  0  0  0  0  0  0  0  0  0
   39.7813  -18.2036   37.6297 H   0  0  0  0  0  0  0  0  0  0  0  0
   34.5250  -20.7316   40.3017 Cl  0  0  0  0  0  0  0  0  0  0  0  0
   35.8665  -20.5206   39.2020 C   0  0  0  0  0  0  0  0  0  0  0  0
   35.7533  -19.6427   38.1494 C   0  0  0  0  0  0  0  0  0  0  0  0
   36.8448  -19.4939   37.2841 C   0  0  0  0  0  0  0  0  0  0  0  0
   38.0063  -20.1940   37.4609 C   0  0  0  0  0  0  0  0  0  0  0  0
   38.0962  -21.0672   38.5219 C   0  0  0  0  0  0  0  0  0  0  0  0
   37.0238  -21.2406   39.4071 C   0  0  0  0  0  0  0  0  0  0  0  0
   37.1235  -22.3469   40.7599 Cl  0  0  0  0  0  0  0  0  0  0  0  0
   40.5093  -21.3038   33.8786 C   0  0  0  0  0  0  0  0  0  0  0  0
   41.5640  -21.6060   33.0653 C   0  0  0  0  0  0  0  0  0  0  0  0
   41.8561  -22.8986   32.8822 C   0  0  0  0  0  0  0  0  0  0  0  0
   41.0696  -23.8172   33.5287 C   0  0  0  0  0  0  0  0  0  0  0  0
   39.9524  -22.8407   34.3674 S   0  0  0  0  0  0  0  0  0  0  0  0
 11 12  1  0  0  0
 12 13  2  0  0  0
 13 14  1  0  0  0
 14 15  2  0  0  0
 15  1  1  0  0  0
  1  2  1  0  0  0
  2  3  1  0  0  0
  3 19  1  0  0  0
 19 20  2  0  0  0
 20 21  1  0  0  0
 21 22  2  0  0  0
 22 23  1  0  0  0
  3  4  1  0  0  0
  4  5  1  0  0  0
  5  6  2  0  0  0
  6  7  1  0  0  0
  7  8  2  0  0  0
  8  9  1  0  0  0
 15 16  1  0  0  0
 16 17  2  0  0  0
 17 18  1  0  0  0
 17 12  1  0  0  0
  9  1  1  0  0  0
 23 19  1  0  0  0
  8  4  1  0  0  0
  9 10  1  0  0  0
M  END
> <minimizedAffinity>
-4.40645

> <CNNscore>
0.1770557314

> <CNNaffinity>
4.5967307091

> <CNN_VS>
0.8138775229

> <CNNaffinity_variance>
0.0287024137

$$$$
[H]c1nc([H])c2c(c1[H])c1c([H])nc(N([H])c3nnc(N([H])C([H])([H])C4([H])C([H])([H])N([H])C4([H])[H])c([H])c3[H])nc1n2C1([H])C([H])([H])C([H])([H])C([H])([H])C1([H])[H]


 34 39  0  0  0  0  0  0  0  0999 V2000
   28.0723  -23.8578   36.3378 C   0  0  0  0  0  0  0  0  0  0  0  0
   28.4225  -22.5944   35.8963 C   0  0  0  0  0  0  0  0  0  0  0  0
   29.6897  -22.1120   36.1429 C   0  0  0  0  0  0  0  0  0  0  0  0
   30.2804  -20.9218   35.8226 C   0  0  0  0  0  0  0  0  0  0  0  0
   29.8729  -19.7698   35.1540 C   0  0  0  0  0  0  0  0  0  0  0  0
   30.7423  -18.7568   35.0156 N   0  0  0  0  0  0  0  0  0  0  0  0
   32.0056  -18.7854   35.4911 C   0  0  0  0  0  0  0  0  0  0  0  0
   32.4231  -19.8840   36.1393 N   0  0  0  0  0  0  0  0  0  0  0  0
   31.5733  -20.9267   36.2982 C   0  0  0  0  0  0  0  0  0  0  0  0
   31.7558  -22.1336   36.9093 N   0  0  0  0  0  0  0  0  0  0  0  0
   30.6315  -22.8526   36.8218 C   0  0  0  0  0  0  0  0  0  0  0  0
   30.2484  -24.1081   37.2476 C   0  0  0  0  0  0  0  0  0  0  0  0
   29.0186  -24.5596   37.0008 N   0  0  0  0  0  0  0  0  0  0  0  0
   32.9687  -22.5811   37.5552 C   0  0  0  0  0  0  0  0  0  0  0  0
   33.3392  -21.7465   38.7540 C   0  0  0  0  0  0  0  0  0  0  0  0
   34.8387  -21.6554   38.7745 C   0  0  0  0  0  0  0  0  0  0  0  0
   35.3523  -22.1826   37.4719 C   0  0  0  0  0  0  0  0  0  0  0  0
   34.1580  -22.6040   36.6485 C   0  0  0  0  0  0  0  0  0  0  0  0
   32.8727  -17.6536   35.2984 N   0  0  0  0  0  0  0  0  0  0  0  0
   32.4522  -16.6994   35.2902 H   0  0  0  0  0  0  0  0  0  0  0  0
   34.2680  -17.8059   35.1219 C   0  0  0  0  0  0  0  0  0  0  0  0
   34.8264  -18.6313   34.1730 C   0  0  0  0  0  0  0  0  0  0  0  0
   36.1998  -18.7576   34.0264 C   0  0  0  0  0  0  0  0  0  0  0  0
   37.0371  -18.0381   34.8523 C   0  0  0  0  0  0  0  0  0  0  0  0
   36.4416  -17.2387   35.7714 N   0  0  0  0  0  0  0  0  0  0  0  0
   35.1299  -17.1301   35.8975 N   0  0  0  0  0  0  0  0  0  0  0  0
   38.4537  -18.1193   34.7575 N   0  0  0  0  0  0  0  0  0  0  0  0
   38.9804  -17.3673   34.2921 H   0  0  0  0  0  0  0  0  0  0  0  0
   39.1541  -19.2550   35.3134 C   0  0  0  0  0  0  0  0  0  0  0  0
   40.4254  -19.5570   34.5503 C   0  0  0  0  0  0  0  0  0  0  0  0
   40.1498  -20.3069   33.2661 C   0  0  0  0  0  0  0  0  0  0  0  0
   41.1009  -19.4425   32.5709 N   0  0  0  0  0  0  0  0  0  0  0  0
   40.8728  -18.4535   33.6251 C   0  0  0  0  0  0  0  0  0  0  0  0
   40.6855  -19.0818   31.6732 H   0  0  0  0  0  0  0  0  0  0  0  0
  1  2  2  0  0  0
  2  3  1  0  0  0
  3  4  1  0  0  0
  4  5  2  0  0  0
  5  6  1  0  0  0
  6  7  2  0  0  0
  7 19  1  0  0  0
 19 21  1  0  0  0
 21 22  2  0  0  0
 22 23  1  0  0  0
 23 24  2  0  0  0
 24 27  1  0  0  0
 27 29  1  0  0  0
 29 30  1  0  0  0
 30 31  1  0  0  0
 31 32  1  0  0  0
 32 33  1  0  0  0
 24 25  1  0  0  0
 25 26  2  0  0  0
  7  8  1  0  0  0
  8  9  2  0  0  0
  9 10  1  0  0  0
 10 14  1  0  0  0
 14 15  1  0  0  0
 15 16  1  0  0  0
 16 17  1  0  0  0
 17 18  1  0  0  0
 10 11  1  0  0  0
 11 12  1  0  0  0
 12 13  2  0  0  0
 13  1  1  0  0  0
 11  3  2  0  0  0
  9  4  1  0  0  0
 18 14  1  0  0  0
 26 21  1  0  0  0
 33 30  1  0  0  0
 19 20  1  0  0  0
 27 28  1  0  0  0
 32 34  1  0  0  0
M  END
> <minimizedAffinity>
-6.63971

> <CNNscore>
0.4336641729

> <CNNaffinity>
5.9250140190

> <CNN_VS>
2.5694663525

> <CNNaffinity_variance>
0.5164262056

$$$$
[H]c1nc([H])c2c(c1[H])c1c([H])nc(N([H])c3nnc(N([H])C([H])([H])C4([H])C([H])([H])N([H])C4([H])[H])c([H])c3[H])nc1n2C1([H])C([H])([H])C([H])([H])C([H])([H])C1([H])[H]


 34 39  0  0  0  0  0  0  0  0999 V2000
   28.0857  -23.8915   36.6305 C   0  0  0  0  0  0  0  0  0  0  0  0
   28.3725  -22.6435   36.1072 C   0  0  0  0  0  0  0  0  0  0  0  0
   29.6310  -22.1067   36.2723 C   0  0  0  0  0  0  0  0  0  0  0  0
   30.1655  -20.9172   35.8634 C   0  0  0  0  0  0  0  0  0  0  0  0
   29.6902  -19.8177   35.1523 C   0  0  0  0  0  0  0  0  0  0  0  0
   30.5168  -18.7858   34.9223 N   0  0  0  0  0  0  0  0  0  0  0  0
   31.7990  -18.7465   35.3432 C   0  0  0  0  0  0  0  0  0  0  0  0
   32.2816  -19.7934   36.0306 N   0  0  0  0  0  0  0  0  0  0  0  0
   31.4765  -20.8532   36.2819 C   0  0  0  0  0  0  0  0  0  0  0  0
   31.7267  -22.0180   36.9482 N   0  0  0  0  0  0  0  0  0  0  0  0
   30.6258  -22.7774   36.9483 C   0  0  0  0  0  0  0  0  0  0  0  0
   30.3053  -24.0196   37.4569 C   0  0  0  0  0  0  0  0  0  0  0  0
   29.0830  -24.5243   37.2884 N   0  0  0  0  0  0  0  0  0  0  0  0
   32.9805  -22.3891   37.5639 C   0  0  0  0  0  0  0  0  0  0  0  0
   33.6733  -23.5217   36.8512 C   0  0  0  0  0  0  0  0  0  0  0  0
   34.3352  -24.3607   37.9073 C   0  0  0  0  0  0  0  0  0  0  0  0
   33.8273  -23.9114   39.2410 C   0  0  0  0  0  0  0  0  0  0  0  0
   32.8495  -22.7853   39.0002 C   0  0  0  0  0  0  0  0  0  0  0  0
   32.6169  -17.5990   35.0527 N   0  0  0  0  0  0  0  0  0  0  0  0
   32.1469  -16.6901   34.8520 H   0  0  0  0  0  0  0  0  0  0  0  0
   34.0292  -17.6768   35.0337 C   0  0  0  0  0  0  0  0  0  0  0  0
   34.8325  -17.1136   35.9986 C   0  0  0  0  0  0  0  0  0  0  0  0
   36.2153  -17.2085   35.9498 C   0  0  0  0  0  0  0  0  0  0  0  0
   36.8104  -17.8854   34.9065 C   0  0  0  0  0  0  0  0  0  0  0  0
   35.9790  -18.4232   33.9803 N   0  0  0  0  0  0  0  0  0  0  0  0
   34.6620  -18.3233   34.0422 N   0  0  0  0  0  0  0  0  0  0  0  0
   38.2215  -18.0215   34.7937 N   0  0  0  0  0  0  0  0  0  0  0  0
   38.8411  -17.4043   35.3366 H   0  0  0  0  0  0  0  0  0  0  0  0
   38.7860  -19.0242   33.9190 C   0  0  0  0  0  0  0  0  0  0  0  0
   40.2509  -18.7646   33.6417 C   0  0  0  0  0  0  0  0  0  0  0  0
   41.1295  -19.1927   34.7959 C   0  0  0  0  0  0  0  0  0  0  0  0
   42.0652  -19.7910   33.8463 N   0  0  0  0  0  0  0  0  0  0  0  0
   40.9507  -19.8768   32.9020 C   0  0  0  0  0  0  0  0  0  0  0  0
   42.3278  -20.7646   34.1490 H   0  0  0  0  0  0  0  0  0  0  0  0
  1  2  2  0  0  0
  2  3  1  0  0  0
  3  4  1  0  0  0
  4  5  2  0  0  0
  5  6  1  0  0  0
  6  7  2  0  0  0
  7 19  1  0  0  0
 19 21  1  0  0  0
 21 22  2  0  0  0
 22 23  1  0  0  0
 23 24  2  0  0  0
 24 27  1  0  0  0
 27 29  1  0  0  0
 29 30  1  0  0  0
 30 31  1  0  0  0
 31 32  1  0  0  0
 32 33  1  0  0  0
 24 25  1  0  0  0
 25 26  2  0  0  0
  7  8  1  0  0  0
  8  9  2  0  0  0
  9 10  1  0  0  0
 10 14  1  0  0  0
 14 15  1  0  0  0
 15 16  1  0  0  0
 16 17  1  0  0  0
 17 18  1  0  0  0
 10 11  1  0  0  0
 11 12  1  0  0  0
 12 13  2  0  0  0
 13  1  1  0  0  0
 11  3  2  0  0  0
  9  4  1  0  0  0
 18 14  1  0  0  0
 26 21  1  0  0  0
 33 30  1  0  0  0
 19 20  1  0  0  0
 27 28  1  0  0  0
 32 34  1  0  0  0
M  END
> <minimizedAffinity>
-6.48873

> <CNNscore>
0.3861748874

> <CNNaffinity>
5.7621388435

> <CNN_VS>
2.2251932621

> <CNNaffinity_variance>
0.7014111280

$$$$
[H]c1nc([H])c2c(c1[H])c1c([H])nc(N([H])c3nnc(N([H])C([H])([H])C4([H])C([H])([H])N([H])C4([H])[H])c([H])c3[H])nc1n2C1([H])C([H])([H])C([H])([H])C([H])([H])C1([H])[H]


 34 39  0  0  0  0  0  0  0  0999 V2000
   29.5913  -20.4565   35.5277 C   0  0  0  0  0  0  0  0  0  0  0  0
   30.5350  -21.1331   36.2796 C   0  0  0  0  0  0  0  0  0  0  0  0
   31.8477  -20.7141   36.2653 C   0  0  0  0  0  0  0  0  0  0  0  0
   32.9559  -21.1956   36.9042 C   0  0  0  0  0  0  0  0  0  0  0  0
   33.2056  -22.2470   37.7831 C   0  0  0  0  0  0  0  0  0  0  0  0
   34.4568  -22.4377   38.2294 N   0  0  0  0  0  0  0  0  0  0  0  0
   35.5036  -21.6626   37.8744 C   0  0  0  0  0  0  0  0  0  0  0  0
   35.2898  -20.6426   37.0286 N   0  0  0  0  0  0  0  0  0  0  0  0
   34.0398  -20.4194   36.5572 C   0  0  0  0  0  0  0  0  0  0  0  0
   33.5728  -19.4640   35.7013 N   0  0  0  0  0  0  0  0  0  0  0  0
   32.2586  -19.6317   35.5194 C   0  0  0  0  0  0  0  0  0  0  0  0
   31.2913  -18.9803   34.7816 C   0  0  0  0  0  0  0  0  0  0  0  0
   30.0258  -19.3987   34.8066 N   0  0  0  0  0  0  0  0  0  0  0  0
   34.3621  -18.4252   35.0795 C   0  0  0  0  0  0  0  0  0  0  0  0
   35.3277  -18.9557   34.0515 C   0  0  0  0  0  0  0  0  0  0  0  0
   36.5710  -18.1179   34.1485 C   0  0  0  0  0  0  0  0  0  0  0  0
   36.4718  -17.2843   35.3870 C   0  0  0  0  0  0  0  0  0  0  0  0
   35.1553  -17.6111   36.0518 C   0  0  0  0  0  0  0  0  0  0  0  0
   36.8140  -21.9380   38.4007 N   0  0  0  0  0  0  0  0  0  0  0  0
   36.8897  -22.4266   39.3188 H   0  0  0  0  0  0  0  0  0  0  0  0
   37.9889  -21.5644   37.7070 C   0  0  0  0  0  0  0  0  0  0  0  0
   38.4392  -20.2669   37.6225 C   0  0  0  0  0  0  0  0  0  0  0  0
   39.5962  -19.9346   36.9336 C   0  0  0  0  0  0  0  0  0  0  0  0
   40.3223  -20.9284   36.3123 C   0  0  0  0  0  0  0  0  0  0  0  0
   39.8401  -22.1907   36.4228 N   0  0  0  0  0  0  0  0  0  0  0  0
   38.7348  -22.4900   37.0838 N   0  0  0  0  0  0  0  0  0  0  0  0
   41.5171  -20.6593   35.5894 N   0  0  0  0  0  0  0  0  0  0  0  0
   42.2969  -20.1713   36.0511 H   0  0  0  0  0  0  0  0  0  0  0  0
   41.6378  -21.0702   34.2088 C   0  0  0  0  0  0  0  0  0  0  0  0
   41.5023  -19.8976   33.2619 C   0  0  0  0  0  0  0  0  0  0  0  0
   40.0856  -19.3702   33.2136 C   0  0  0  0  0  0  0  0  0  0  0  0
   40.6044  -18.0053   33.2681 N   0  0  0  0  0  0  0  0  0  0  0  0
   41.8123  -18.5583   33.8817 C   0  0  0  0  0  0  0  0  0  0  0  0
   40.0862  -17.4410   33.9903 H   0  0  0  0  0  0  0  0  0  0  0  0
  1  2  2  0  0  0
  2  3  1  0  0  0
  3  4  1  0  0  0
  4  5  2  0  0  0
  5  6  1  0  0  0
  6  7  2  0  0  0
  7 19  1  0  0  0
 19 21  1  0  0  0
 21 22  2  0  0  0
 22 23  1  0  0  0
 23 24  2  0  0  0
 24 27  1  0  0  0
 27 29  1  0  0  0
 29 30  1  0  0  0
 30 31  1  0  0  0
 31 32  1  0  0  0
 32 33  1  0  0  0
 24 25  1  0  0  0
 25 26  2  0  0  0
  7  8  1  0  0  0
  8  9  2  0  0  0
  9 10  1  0  0  0
 10 14  1  0  0  0
 14 15  1  0  0  0
 15 16  1  0  0  0
 16 17  1  0  0  0
 17 18  1  0  0  0
 10 11  1  0  0  0
 11 12  1  0  0  0
 12 13  2  0  0  0
 13  1  1  0  0  0
 11  3  2  0  0  0
  9  4  1  0  0  0
 18 14  1  0  0  0
 26 21  1  0  0  0
 33 30  1  0  0  0
 19 20  1  0  0  0
 27 28  1  0  0  0
 32 34  1  0  0  0
M  END
> <minimizedAffinity>
-6.24778

> <CNNscore>
0.2393398136

> <CNNaffinity>
5.5163550377

> <CNN_VS>
1.3202834129

> <CNNaffinity_variance>
0.3644509017

$$$$
[H]c1nc([H])c2c(c1[H])c1c([H])nc(N([H])c3nnc(N([H])C([H])([H])C4([H])C([H])([H])N([H])C4([H])[H])c([H])c3[H])nc1n2C1([H])C([H])([H])C([H])([H])C([H])([H])C1([H])[H]


 34 39  0  0  0  0  0  0  0  0999 V2000
   29.5872  -24.3898   37.4390 C   0  0  0  0  0  0  0  0  0  0  0  0
   30.1471  -23.2804   36.8312 C   0  0  0  0  0  0  0  0  0  0  0  0
   31.2690  -22.6957   37.3778 C   0  0  0  0  0  0  0  0  0  0  0  0
   32.0053  -21.6136   36.9845 C   0  0  0  0  0  0  0  0  0  0  0  0
   31.9335  -20.7052   35.9309 C   0  0  0  0  0  0  0  0  0  0  0  0
   32.8540  -19.7321   35.8480 N   0  0  0  0  0  0  0  0  0  0  0  0
   33.8598  -19.5766   36.7350 C   0  0  0  0  0  0  0  0  0  0  0  0
   33.9515  -20.4388   37.7596 N   0  0  0  0  0  0  0  0  0  0  0  0
   33.0402  -21.4340   37.8759 C   0  0  0  0  0  0  0  0  0  0  0  0
   32.9195  -22.4203   38.8118 N   0  0  0  0  0  0  0  0  0  0  0  0
   31.8599  -23.1831   38.5223 C   0  0  0  0  0  0  0  0  0  0  0  0
   31.2754  -24.2906   39.1022 C   0  0  0  0  0  0  0  0  0  0  0  0
   30.1903  -24.8440   38.5605 N   0  0  0  0  0  0  0  0  0  0  0  0
   33.7924  -22.6234   39.9456 C   0  0  0  0  0  0  0  0  0  0  0  0
   33.7771  -21.4689   40.9141 C   0  0  0  0  0  0  0  0  0  0  0  0
   35.1761  -21.3253   41.4426 C   0  0  0  0  0  0  0  0  0  0  0  0
   36.0754  -22.1853   40.6117 C   0  0  0  0  0  0  0  0  0  0  0  0
   35.2196  -22.8645   39.5685 C   0  0  0  0  0  0  0  0  0  0  0  0
   34.8047  -18.5041   36.5708 N   0  0  0  0  0  0  0  0  0  0  0  0
   34.6912  -17.6465   37.1531 H   0  0  0  0  0  0  0  0  0  0  0  0
   35.8724  -18.5872   35.6465 C   0  0  0  0  0  0  0  0  0  0  0  0
   36.0890  -17.6601   34.6531 C   0  0  0  0  0  0  0  0  0  0  0  0
   37.1465  -17.7717   33.7626 C   0  0  0  0  0  0  0  0  0  0  0  0
   38.0107  -18.8406   33.8694 C   0  0  0  0  0  0  0  0  0  0  0  0
   37.7574  -19.7278   34.8629 N   0  0  0  0  0  0  0  0  0  0  0  0
   36.7442  -19.6062   35.7036 N   0  0  0  0  0  0  0  0  0  0  0  0
   39.1150  -19.0173   32.9909 N   0  0  0  0  0  0  0  0  0  0  0  0
   39.0135  -19.6041   32.1514 H   0  0  0  0  0  0  0  0  0  0  0  0
   40.3781  -18.3746   33.2751 C   0  0  0  0  0  0  0  0  0  0  0  0
   41.5422  -19.3253   33.0991 C   0  0  0  0  0  0  0  0  0  0  0  0
   42.1877  -19.6797   34.4202 C   0  0  0  0  0  0  0  0  0  0  0  0
   42.2526  -21.0777   34.0000 N   0  0  0  0  0  0  0  0  0  0  0  0
   41.1569  -20.7830   33.0759 C   0  0  0  0  0  0  0  0  0  0  0  0
   41.8925  -21.7100   34.7609 H   0  0  0  0  0  0  0  0  0  0  0  0
  1  2  2  0  0  0
  2  3  1  0  0  0
  3  4  1  0  0  0
  4  5  2  0  0  0
  5  6  1  0  0  0
  6  7  2  0  0  0
  7 19  1  0  0  0
 19 21  1  0  0  0
 21 22  2  0  0  0
 22 23  1  0  0  0
 23 24  2  0  0  0
 24 27  1  0  0  0
 27 29  1  0  0  0
 29 30  1  0  0  0
 30 31  1  0  0  0
 31 32  1  0  0  0
 32 33  1  0  0  0
 24 25  1  0  0  0
 25 26  2  0  0  0
  7  8  1  0  0  0
  8  9  2  0  0  0
  9 10  1  0  0  0
 10 14  1  0  0  0
 14 15  1  0  0  0
 15 16  1  0  0  0
 16 17  1  0  0  0
 17 18  1  0  0  0
 10 11  1  0  0  0
 11 12  1  0  0  0
 12 13  2  0  0  0
 13  1  1  0  0  0
 11  3  2  0  0  0
  9  4  1  0  0  0
 18 14  1  0  0  0
 26 21  1  0  0  0
 33 30  1  0  0  0
 19 20  1  0  0  0
 27 28  1  0  0  0
 32 34  1  0  0  0
M  END
> <minimizedAffinity>
-5.12704

> <CNNscore>
0.2128899097

> <CNNaffinity>
5.3914566040

> <CNN_VS>
1.1477867365

> <CNNaffinity_variance>
0.2039080858

$$$$
[H]c1nc([H])c2c(c1[H])c1c([H])nc(N([H])c3nnc(N([H])C([H])([H])C4([H])C([H])([H])N([H])C4([H])[H])c([H])c3[H])nc1n2C1([H])C([H])([H])C([H])([H])C([H])([H])C1([H])[H]


 34 39  0  0  0  0  0  0  0  0999 V2000
   28.1060  -22.7927   36.5852 C   0  0  0  0  0  0  0  0  0  0  0  0
   28.6864  -21.7262   35.9224 C   0  0  0  0  0  0  0  0  0  0  0  0
   30.0144  -21.4286   36.1393 C   0  0  0  0  0  0  0  0  0  0  0  0
   30.8158  -20.4491   35.6231 C   0  0  0  0  0  0  0  0  0  0  0  0
   30.6355  -19.4062   34.7174 C   0  0  0  0  0  0  0  0  0  0  0  0
   31.6755  -18.6080   34.4301 N   0  0  0  0  0  0  0  0  0  0  0  0
   32.9032  -18.7551   34.9721 C   0  0  0  0  0  0  0  0  0  0  0  0
   33.1033  -19.7525   35.8477 N   0  0  0  0  0  0  0  0  0  0  0  0
   32.0769  -20.5784   36.1622 C   0  0  0  0  0  0  0  0  0  0  0  0
   32.0271  -21.6473   37.0097 N   0  0  0  0  0  0  0  0  0  0  0  0
   30.7940  -22.1648   37.0034 C   0  0  0  0  0  0  0  0  0  0  0  0
   30.1829  -23.2213   37.6475 C   0  0  0  0  0  0  0  0  0  0  0  0
   28.8973  -23.4956   37.4263 N   0  0  0  0  0  0  0  0  0  0  0  0
   33.1267  -22.1545   37.7987 C   0  0  0  0  0  0  0  0  0  0  0  0
   33.8292  -21.0800   38.5879 C   0  0  0  0  0  0  0  0  0  0  0  0
   35.2900  -21.4311   38.5969 C   0  0  0  0  0  0  0  0  0  0  0  0
   35.5074  -22.5327   37.6081 C   0  0  0  0  0  0  0  0  0  0  0  0
   34.1683  -22.8620   36.9915 C   0  0  0  0  0  0  0  0  0  0  0  0
   33.9633  -17.8532   34.6079 N   0  0  0  0  0  0  0  0  0  0  0  0
   33.7480  -17.0687   33.9554 H   0  0  0  0  0  0  0  0  0  0  0  0
   35.2768  -18.0062   35.1104 C   0  0  0  0  0  0  0  0  0  0  0  0
   35.6929  -17.4872   36.3150 C   0  0  0  0  0  0  0  0  0  0  0  0
   36.9891  -17.6556   36.7785 C   0  0  0  0  0  0  0  0  0  0  0  0
   37.8937  -18.3628   36.0154 C   0  0  0  0  0  0  0  0  0  0  0  0
   37.4385  -18.8550   34.8369 N   0  0  0  0  0  0  0  0  0  0  0  0
   36.1988  -18.6850   34.4099 N   0  0  0  0  0  0  0  0  0  0  0  0
   39.2379  -18.5739   36.4291 N   0  0  0  0  0  0  0  0  0  0  0  0
   39.5721  -18.1668   37.3135 H   0  0  0  0  0  0  0  0  0  0  0  0
   40.1342  -19.3586   35.6105 C   0  0  0  0  0  0  0  0  0  0  0  0
   40.6529  -20.5712   36.3524 C   0  0  0  0  0  0  0  0  0  0  0  0
   40.6507  -20.3617   37.8502 C   0  0  0  0  0  0  0  0  0  0  0  0
   40.1067  -21.7065   38.0257 N   0  0  0  0  0  0  0  0  0  0  0  0
   39.6039  -21.6115   36.6547 C   0  0  0  0  0  0  0  0  0  0  0  0
   39.2882  -21.6911   38.6878 H   0  0  0  0  0  0  0  0  0  0  0  0
  1  2  2  0  0  0
  2  3  1  0  0  0
  3  4  1  0  0  0
  4  5  2  0  0  0
  5  6  1  0  0  0
  6  7  2  0  0  0
  7 19  1  0  0  0
 19 21  1  0  0  0
 21 22  2  0  0  0
 22 23  1  0  0  0
 23 24  2  0  0  0
 24 27  1  0  0  0
 27 29  1  0  0  0
 29 30  1  0  0  0
 30 31  1  0  0  0
 31 32  1  0  0  0
 32 33  1  0  0  0
 24 25  1  0  0  0
 25 26  2  0  0  0
  7  8  1  0  0  0
  8  9  2  0  0  0
  9 10  1  0  0  0
 10 14  1  0  0  0
 14 15  1  0  0  0
 15 16  1  0  0  0
 16 17  1  0  0  0
 17 18  1  0  0  0
 10 11  1  0  0  0
 11 12  1  0  0  0
 12 13  2  0  0  0
 13  1  1  0  0  0
 11  3  2  0  0  0
  9  4  1  0  0  0
 18 14  1  0  0  0
 26 21  1  0  0  0
 33 30  1  0  0  0
 19 20  1  0  0  0
 27 28  1  0  0  0
 32 34  1  0  0  0
M  END
> <minimizedAffinity>
-5.61435

> <CNNscore>
0.2038820088

> <CNNaffinity>
5.2573685646

> <CNN_VS>
1.0718828440

> <CNNaffinity_variance>
0.6910596490

$$$$
[H]c1nc([H])c2c(c1[H])c1c([H])nc(N([H])c3nnc(N([H])C([H])([H])C4([H])C([H])([H])N([H])C4([H])[H])c([H])c3[H])nc1n2C1([H])C([H])([H])C([H])([H])C([H])([H])C1([H])[H]


 34 39  0  0  0  0  0  0  0  0999 V2000
   38.1985  -19.1793   36.4620 C   0  0  0  0  0  0  0  0  0  0  0  0
   37.9110  -17.8530   36.7303 C   0  0  0  0  0  0  0  0  0  0  0  0
   36.6794  -17.3385   36.3875 C   0  0  0  0  0  0  0  0  0  0  0  0
   36.1504  -16.0873   36.5377 C   0  0  0  0  0  0  0  0  0  0  0  0
   36.6077  -14.8831   37.0679 C   0  0  0  0  0  0  0  0  0  0  0  0
   35.7946  -13.8155   37.0518 N   0  0  0  0  0  0  0  0  0  0  0  0
   34.5429  -13.8364   36.5463 C   0  0  0  0  0  0  0  0  0  0  0  0
   34.0782  -14.9846   36.0294 N   0  0  0  0  0  0  0  0  0  0  0  0
   34.8704  -16.0831   36.0283 C   0  0  0  0  0  0  0  0  0  0  0  0
   34.6333  -17.3464   35.5688 N   0  0  0  0  0  0  0  0  0  0  0  0
   35.7124  -18.1078   35.7794 C   0  0  0  0  0  0  0  0  0  0  0  0
   36.0328  -19.4261   35.5266 C   0  0  0  0  0  0  0  0  0  0  0  0
   37.2289  -19.9080   35.8647 N   0  0  0  0  0  0  0  0  0  0  0  0
   33.4118  -17.8067   34.9485 C   0  0  0  0  0  0  0  0  0  0  0  0
   32.5077  -18.5421   35.9038 C   0  0  0  0  0  0  0  0  0  0  0  0
   31.8542  -19.6463   35.1222 C   0  0  0  0  0  0  0  0  0  0  0  0
   32.5506  -19.7540   33.8023 C   0  0  0  0  0  0  0  0  0  0  0  0
   33.6368  -18.7045   33.7736 C   0  0  0  0  0  0  0  0  0  0  0  0
   33.7376  -12.6443   36.5692 N   0  0  0  0  0  0  0  0  0  0  0  0
   34.0586  -11.8156   36.0237 H   0  0  0  0  0  0  0  0  0  0  0  0
   32.5331  -12.5733   37.3077 C   0  0  0  0  0  0  0  0  0  0  0  0
   32.4145  -13.0070   38.6082 C   0  0  0  0  0  0  0  0  0  0  0  0
   31.2177  -12.9228   39.3040 C   0  0  0  0  0  0  0  0  0  0  0  0
   30.1092  -12.3901   38.6809 C   0  0  0  0  0  0  0  0  0  0  0  0
   30.2740  -11.9765   37.4002 N   0  0  0  0  0  0  0  0  0  0  0  0
   31.4228  -12.0641   36.7515 N   0  0  0  0  0  0  0  0  0  0  0  0
   28.8513  -12.2736   39.3341 N   0  0  0  0  0  0  0  0  0  0  0  0
   28.6944  -12.7495   40.2332 H   0  0  0  0  0  0  0  0  0  0  0  0
   27.7943  -11.4884   38.7378 C   0  0  0  0  0  0  0  0  0  0  0  0
   27.5710  -10.1913   39.4845 C   0  0  0  0  0  0  0  0  0  0  0  0
   27.9863  -10.2949   40.9351 C   0  0  0  0  0  0  0  0  0  0  0  0
   28.6274   -8.9859   40.8329 N   0  0  0  0  0  0  0  0  0  0  0  0
   28.7157   -9.2142   39.3902 C   0  0  0  0  0  0  0  0  0  0  0  0
   29.5979   -9.0162   41.2401 H   0  0  0  0  0  0  0  0  0  0  0  0
  1  2  2  0  0  0
  2  3  1  0  0  0
  3  4  1  0  0  0
  4  5  2  0  0  0
  5  6  1  0  0  0
  6  7  2  0  0  0
  7 19  1  0  0  0
 19 21  1  0  0  0
 21 22  2  0  0  0
 22 23  1  0  0  0
 23 24  2  0  0  0
 24 27  1  0  0  0
 27 29  1  0  0  0
 29 30  1  0  0  0
 30 31  1  0  0  0
 31 32  1  0  0  0
 32 33  1  0  0  0
 24 25  1  0  0  0
 25 26  2  0  0  0
  7  8  1  0  0  0
  8  9  2  0  0  0
  9 10  1  0  0  0
 10 14  1  0  0  0
 14 15  1  0  0  0
 15 16  1  0  0  0
 16 17  1  0  0  0
 17 18  1  0  0  0
 10 11  1  0  0  0
 11 12  1  0  0  0
 12 13  2  0  0  0
 13  1  1  0  0  0
 11  3  2  0  0  0
  9  4  1  0  0  0
 18 14  1  0  0  0
 26 21  1  0  0  0
 33 30  1  0  0  0
 19 20  1  0  0  0
 27 28  1  0  0  0
 32 34  1  0  0  0
M  END
> <minimizedAffinity>
-9.03606

> <CNNscore>
0.1986233890

> <CNNaffinity>
6.2658414841

> <CNN_VS>
1.2445427179

> <CNNaffinity_variance>
0.1424757838

$$$$
[H]c1nc([H])c2c(c1[H])c1c([H])nc(N([H])c3nnc(N([H])C([H])([H])C4([H])C([H])([H])N([H])C4([H])[H])c([H])c3[H])nc1n2C1([H])C([H])([H])C([H])([H])C([H])([H])C1([H])[H]


 34 39  0  0  0  0  0  0  0  0999 V2000
   35.4321  -13.4174   36.9023 C   0  0  0  0  0  0  0  0  0  0  0  0
   36.2657  -14.5208   36.9387 C   0  0  0  0  0  0  0  0  0  0  0  0
   35.8022  -15.7414   36.4976 C   0  0  0  0  0  0  0  0  0  0  0  0
   36.4075  -16.9648   36.4273 C   0  0  0  0  0  0  0  0  0  0  0  0
   37.6689  -17.4584   36.7523 C   0  0  0  0  0  0  0  0  0  0  0  0
   37.9313  -18.7582   36.5453 N   0  0  0  0  0  0  0  0  0  0  0  0
   37.0358  -19.6296   36.0341 C   0  0  0  0  0  0  0  0  0  0  0  0
   35.8130  -19.1793   35.7124 N   0  0  0  0  0  0  0  0  0  0  0  0
   35.5118  -17.8732   35.9074 C   0  0  0  0  0  0  0  0  0  0  0  0
   34.3589  -17.1837   35.6651 N   0  0  0  0  0  0  0  0  0  0  0  0
   34.5224  -15.9035   36.0157 C   0  0  0  0  0  0  0  0  0  0  0  0
   33.7183  -14.7822   35.9935 C   0  0  0  0  0  0  0  0  0  0  0  0
   34.1822  -13.6090   36.4239 N   0  0  0  0  0  0  0  0  0  0  0  0
   33.1416  -17.7357   35.1154 C   0  0  0  0  0  0  0  0  0  0  0  0
   32.4993  -18.7579   36.0173 C   0  0  0  0  0  0  0  0  0  0  0  0
   31.9089  -19.8143   35.1270 C   0  0  0  0  0  0  0  0  0  0  0  0
   32.4186  -19.5876   33.7387 C   0  0  0  0  0  0  0  0  0  0  0  0
   33.3253  -18.3800   33.7781 C   0  0  0  0  0  0  0  0  0  0  0  0
   37.4008  -21.0083   35.8446 N   0  0  0  0  0  0  0  0  0  0  0  0
   37.5238  -21.3620   34.8714 H   0  0  0  0  0  0  0  0  0  0  0  0
   37.5943  -21.8846   36.9382 C   0  0  0  0  0  0  0  0  0  0  0  0
   38.6112  -22.8097   36.9976 C   0  0  0  0  0  0  0  0  0  0  0  0
   38.7726  -23.6544   38.0857 C   0  0  0  0  0  0  0  0  0  0  0  0
   37.8919  -23.5709   39.1432 C   0  0  0  0  0  0  0  0  0  0  0  0
   36.9068  -22.6451   39.0398 N   0  0  0  0  0  0  0  0  0  0  0  0
   36.7674  -21.8474   37.9947 N   0  0  0  0  0  0  0  0  0  0  0  0
   37.9981  -24.4054   40.2899 N   0  0  0  0  0  0  0  0  0  0  0  0
   37.1656  -24.5953   40.8647 H   0  0  0  0  0  0  0  0  0  0  0  0
   39.2720  -24.9868   40.6485 C   0  0  0  0  0  0  0  0  0  0  0  0
   39.7905  -24.4343   41.9584 C   0  0  0  0  0  0  0  0  0  0  0  0
   40.4814  -23.1012   41.7762 C   0  0  0  0  0  0  0  0  0  0  0  0
   39.7955  -22.5968   42.9637 N   0  0  0  0  0  0  0  0  0  0  0  0
   38.7817  -23.6273   42.7362 C   0  0  0  0  0  0  0  0  0  0  0  0
   39.3683  -21.6538   42.7718 H   0  0  0  0  0  0  0  0  0  0  0  0
  1  2  2  0  0  0
  2  3  1  0  0  0
  3  4  1  0  0  0
  4  5  2  0  0  0
  5  6  1  0  0  0
  6  7  2  0  0  0
  7 19  1  0  0  0
 19 21  1  0  0  0
 21 22  2  0  0  0
 22 23  1  0  0  0
 23 24  2  0  0  0
 24 27  1  0  0  0
 27 29  1  0  0  0
 29 30  1  0  0  0
 30 31  1  0  0  0
 31 32  1  0  0  0
 32 33  1  0  0  0
 24 25  1  0  0  0
 25 26  2  0  0  0
  7  8  1  0  0  0
  8  9  2  0  0  0
  9 10  1  0  0  0
 10 14  1  0  0  0
 14 15  1  0  0  0
 15 16  1  0  0  0
 16 17  1  0  0  0
 17 18  1  0  0  0
 10 11  1  0  0  0
 11 12  1  0  0  0
 12 13  2  0  0  0
 13  1  1  0  0  0
 11  3  2  0  0  0
  9  4  1  0  0  0
 18 14  1  0  0  0
 26 21  1  0  0  0
 33 30  1  0  0  0
 19 20  1  0  0  0
 27 28  1  0  0  0
 32 34  1  0  0  0
M  END
> <minimizedAffinity>
-5.12129

> <CNNscore>
0.1981585175

> <CNNaffinity>
5.6286067963

> <CNN_VS>
1.1153563261

> <CNNaffinity_variance>
0.0766811967

$$$$
[H]c1nc([H])c2c(c1[H])c1c([H])nc(N([H])c3nnc(N([H])C([H])([H])C4([H])C([H])([H])N([H])C4([H])[H])c([H])c3[H])nc1n2C1([H])C([H])([H])C([H])([H])C([H])([H])C1([H])[H]


 34 39  0  0  0  0  0  0  0  0999 V2000
   33.7073  -23.6825   42.8653 C   0  0  0  0  0  0  0  0  0  0  0  0
   33.6429  -23.0032   41.6620 C   0  0  0  0  0  0  0  0  0  0  0  0
   34.8064  -22.6081   41.0378 C   0  0  0  0  0  0  0  0  0  0  0  0
   35.0191  -21.9370   39.8664 C   0  0  0  0  0  0  0  0  0  0  0  0
   34.1985  -21.4045   38.8747 C   0  0  0  0  0  0  0  0  0  0  0  0
   34.7638  -20.7894   37.8244 N   0  0  0  0  0  0  0  0  0  0  0  0
   36.0976  -20.6526   37.6669 C   0  0  0  0  0  0  0  0  0  0  0  0
   36.9105  -21.1570   38.6084 N   0  0  0  0  0  0  0  0  0  0  0  0
   36.3759  -21.7847   39.6829 C   0  0  0  0  0  0  0  0  0  0  0  0
   36.9794  -22.3717   40.7574 N   0  0  0  0  0  0  0  0  0  0  0  0
   36.0466  -22.8690   41.5766 C   0  0  0  0  0  0  0  0  0  0  0  0
   36.0738  -23.5483   42.7776 C   0  0  0  0  0  0  0  0  0  0  0  0
   34.9390  -23.9233   43.3681 N   0  0  0  0  0  0  0  0  0  0  0  0
   38.4036  -22.4524   40.9894 C   0  0  0  0  0  0  0  0  0  0  0  0
   39.0251  -21.1160   41.3035 C   0  0  0  0  0  0  0  0  0  0  0  0
   40.3867  -21.1089   40.6685 C   0  0  0  0  0  0  0  0  0  0  0  0
   40.4799  -22.2940   39.7600 C   0  0  0  0  0  0  0  0  0  0  0  0
   39.1663  -23.0354   39.8424 C   0  0  0  0  0  0  0  0  0  0  0  0
   36.6200  -19.9779   36.5085 N   0  0  0  0  0  0  0  0  0  0  0  0
   37.1189  -20.5410   35.7865 H   0  0  0  0  0  0  0  0  0  0  0  0
   36.4728  -18.5823   36.3301 C   0  0  0  0  0  0  0  0  0  0  0  0
   35.7847  -18.0208   35.2790 C   0  0  0  0  0  0  0  0  0  0  0  0
   35.6593  -16.6472   35.1337 C   0  0  0  0  0  0  0  0  0  0  0  0
   36.2386  -15.8128   36.0659 C   0  0  0  0  0  0  0  0  0  0  0  0
   36.9058  -16.4112   37.0833 N   0  0  0  0  0  0  0  0  0  0  0  0
   37.0157  -17.7230   37.2067 N   0  0  0  0  0  0  0  0  0  0  0  0
   36.1496  -14.3961   35.9789 N   0  0  0  0  0  0  0  0  0  0  0  0
   36.3573  -13.9230   35.0887 H   0  0  0  0  0  0  0  0  0  0  0  0
   35.7680  -13.6207   37.1376 C   0  0  0  0  0  0  0  0  0  0  0  0
   34.5227  -12.8012   36.8775 C   0  0  0  0  0  0  0  0  0  0  0  0
   33.4711  -13.5915   36.1311 C   0  0  0  0  0  0  0  0  0  0  0  0
   32.4491  -13.0557   37.0275 N   0  0  0  0  0  0  0  0  0  0  0  0
   33.5170  -12.8240   38.0008 C   0  0  0  0  0  0  0  0  0  0  0  0
   31.8281  -13.8275   37.3841 H   0  0  0  0  0  0  0  0  0  0  0  0
  1  2  2  0  0  0
  2  3  1  0  0  0
  3  4  1  0  0  0
  4  5  2  0  0  0
  5  6  1  0  0  0
  6  7  2  0  0  0
  7 19  1  0  0  0
 19 21  1  0  0  0
 21 22  2  0  0  0
 22 23  1  0  0  0
 23 24  2  0  0  0
 24 27  1  0  0  0
 27 29  1  0  0  0
 29 30  1  0  0  0
 30 31  1  0  0  0
 31 32  1  0  0  0
 32 33  1  0  0  0
 24 25  1  0  0  0
 25 26  2  0  0  0
  7  8  1  0  0  0
  8  9  2  0  0  0
  9 10  1  0  0  0
 10 14  1  0  0  0
 14 15  1  0  0  0
 15 16  1  0  0  0
 16 17  1  0  0  0
 17 18  1  0  0  0
 10 11  1  0  0  0
 11 12  1  0  0  0
 12 13  2  0  0  0
 13  1  1  0  0  0
 11  3  2  0  0  0
  9  4  1  0  0  0
 18 14  1  0  0  0
 26 21  1  0  0  0
 33 30  1  0  0  0
 19 20  1  0  0  0
 27 28  1  0  0  0
 32 34  1  0  0  0
M  END
> <minimizedAffinity>
-4.97969

> <CNNscore>
0.1568731517

> <CNNaffinity>
5.6100482941

> <CNN_VS>
0.8800659776

> <CNNaffinity_variance>
0.1699052006

$$$$
[H]c1nc([H])c2c(c1[H])c1c([H])nc(N([H])c3nnc(N([H])C([H])([H])C4([H])C([H])([H])N([H])C4([H])[H])c([H])c3[H])nc1n2C1([H])C([H])([H])C([H])([H])C([H])([H])C1([H])[H]


 34 39  0  0  0  0  0  0  0  0999 V2000
   35.6279  -13.6658   37.0147 C   0  0  0  0  0  0  0  0  0  0  0  0
   34.8357  -14.4668   36.2119 C   0  0  0  0  0  0  0  0  0  0  0  0
   35.0265  -15.8317   36.2091 C   0  0  0  0  0  0  0  0  0  0  0  0
   34.3939  -16.8300   35.5227 C   0  0  0  0  0  0  0  0  0  0  0  0
   33.3552  -16.8813   34.5959 C   0  0  0  0  0  0  0  0  0  0  0  0
   32.9763  -18.0735   34.1099 N   0  0  0  0  0  0  0  0  0  0  0  0
   33.5473  -19.2430   34.4687 C   0  0  0  0  0  0  0  0  0  0  0  0
   34.5503  -19.2211   35.3603 N   0  0  0  0  0  0  0  0  0  0  0  0
   34.9600  -18.0361   35.8726 C   0  0  0  0  0  0  0  0  0  0  0  0
   35.9418  -17.7539   36.7781 N   0  0  0  0  0  0  0  0  0  0  0  0
   35.9901  -16.4339   36.9871 C   0  0  0  0  0  0  0  0  0  0  0  0
   36.7620  -15.6051   37.7755 C   0  0  0  0  0  0  0  0  0  0  0  0
   36.5644  -14.2867   37.7665 N   0  0  0  0  0  0  0  0  0  0  0  0
   36.8041  -18.7194   37.4207 C   0  0  0  0  0  0  0  0  0  0  0  0
   37.7733  -19.3692   36.4671 C   0  0  0  0  0  0  0  0  0  0  0  0
   37.9238  -20.7982   36.9057 C   0  0  0  0  0  0  0  0  0  0  0  0
   36.8655  -21.0837   37.9241 C   0  0  0  0  0  0  0  0  0  0  0  0
   36.0630  -19.8181   38.1140 C   0  0  0  0  0  0  0  0  0  0  0  0
   33.0786  -20.4777   33.8978 N   0  0  0  0  0  0  0  0  0  0  0  0
   33.5744  -20.8612   33.0644 H   0  0  0  0  0  0  0  0  0  0  0  0
   31.9718  -21.1746   34.4368 C   0  0  0  0  0  0  0  0  0  0  0  0
   31.8720  -22.5470   34.4469 C   0  0  0  0  0  0  0  0  0  0  0  0
   30.7720  -23.1992   34.9838 C   0  0  0  0  0  0  0  0  0  0  0  0
   29.7438  -22.4573   35.5254 C   0  0  0  0  0  0  0  0  0  0  0  0
   29.8865  -21.1094   35.4929 N   0  0  0  0  0  0  0  0  0  0  0  0
   30.9424  -20.5038   34.9769 N   0  0  0  0  0  0  0  0  0  0  0  0
   28.5871  -23.0599   36.0924 N   0  0  0  0  0  0  0  0  0  0  0  0
   27.7464  -23.1993   35.5152 H   0  0  0  0  0  0  0  0  0  0  0  0
   28.5908  -23.4764   37.4766 C   0  0  0  0  0  0  0  0  0  0  0  0
   27.5853  -22.6989   38.2978 C   0  0  0  0  0  0  0  0  0  0  0  0
   28.0470  -22.5090   39.7255 C   0  0  0  0  0  0  0  0  0  0  0  0
   27.6077  -21.1165   39.6699 N   0  0  0  0  0  0  0  0  0  0  0  0
   27.7394  -21.2012   38.2149 C   0  0  0  0  0  0  0  0  0  0  0  0
   28.3574  -20.4769   40.0406 H   0  0  0  0  0  0  0  0  0  0  0  0
  1  2  2  0  0  0
  2  3  1  0  0  0
  3  4  1  0  0  0
  4  5  2  0  0  0
  5  6  1  0  0  0
  6  7  2  0  0  0
  7 19  1  0  0  0
 19 21  1  0  0  0
 21 22  2  0  0  0
 22 23  1  0  0  0
 23 24  2  0  0  0
 24 27  1  0  0  0
 27 29  1  0  0  0
 29 30  1  0  0  0
 30 31  1  0  0  0
 31 32  1  0  0  0
 32 33  1  0  0  0
 24 25  1  0  0  0
 25 26  2  0  0  0
  7  8  1  0  0  0
  8  9  2  0  0  0
  9 10  1  0  0  0
 10 14  1  0  0  0
 14 15  1  0  0  0
 15 16  1  0  0  0
 16 17  1  0  0  0
 17 18  1  0  0  0
 10 11  1  0  0  0
 11 12  1  0  0  0
 12 13  2  0  0  0
 13  1  1  0  0  0
 11  3  2  0  0  0
  9  4  1  0  0  0
 18 14  1  0  0  0
 26 21  1  0  0  0
 33 30  1  0  0  0
 19 20  1  0  0  0
 27 28  1  0  0  0
 32 34  1  0  0  0
M  END
> <minimizedAffinity>
-6.80884

> <CNNscore>
0.1554993987

> <CNNaffinity>
5.5654144287

> <CNN_VS>
0.8654186130

> <CNNaffinity_variance>
0.4602368474

$$$$
[H]Oc1c([H])c([H])c(C([H])([H])[C@@]2([H])C(=O)N(C([H])([H])c3c([H])c([H])c([H])c4c(C(=O)N([H])c5c([H])nc(N6C([H])([H])C([H])([H])C([H])(N7C([H])([H])C([H])([H])C7([H])[H])C([H])([H])C6([H])[H])c([H])c5[H])c([H])n(C([H])([H])[H])c34)C([H])([H])[C@]3([H])N(C(=O)N([H])C([H])([H])c4c([H])c([H])c([H])c([H])c4[H])N(C([H])([H])C([H])=C([H])[H])C([H])([H])C(=O)N23)c([H])c1[H]


 66 74  0  0  0  0  0  0  0  0999 V2000
   35.5094  -24.2718   38.3396 N   0  0  0  0  0  0  0  0  0  0  0  0
   35.7089  -25.3370   39.3059 C   0  0  0  0  0  0  0  0  0  0  0  0
   36.0719  -24.5660   40.5638 C   0  0  0  0  0  0  0  0  0  0  0  0
   37.1075  -24.9146   41.1592 O   0  0  0  0  0  0  0  0  0  0  0  0
   35.2430  -23.5276   40.9883 N   0  0  0  0  0  0  0  0  0  0  0  0
   35.2035  -23.1395   42.3694 C   0  0  0  0  0  0  0  0  0  0  0  0
   33.8775  -23.7014   42.8256 C   0  0  0  0  0  0  0  0  0  0  0  0
   33.7675  -24.2647   43.9011 O   0  0  0  0  0  0  0  0  0  0  0  0
   32.7802  -23.5437   41.9561 N   0  0  0  0  0  0  0  0  0  0  0  0
   32.9207  -22.9367   40.6100 C   0  0  0  0  0  0  0  0  0  0  0  0
   34.3198  -22.8816   40.0934 C   0  0  0  0  0  0  0  0  0  0  0  0
   34.5369  -23.3274   38.7361 N   0  0  0  0  0  0  0  0  0  0  0  0
   33.7657  -22.7977   37.6554 C   0  0  0  0  0  0  0  0  0  0  0  0
   33.9836  -23.2936   36.4989 O   0  0  0  0  0  0  0  0  0  0  0  0
   32.7955  -21.7899   37.7162 N   0  0  0  0  0  0  0  0  0  0  0  0
   32.5619  -21.3314   38.5971 H   0  0  0  0  0  0  0  0  0  0  0  0
   36.8303  -23.6799   38.1902 C   0  0  0  0  0  0  0  0  0  0  0  0
   38.2267  -22.6751   36.4776 C   0  0  0  0  0  0  0  0  0  0  0  0
   37.2545  -23.4745   36.8260 C   0  0  0  0  0  0  0  0  0  0  0  0
   35.3339  -21.7175   42.7180 C   0  0  0  0  0  0  0  0  0  0  0  0
   36.6653  -21.1394   42.9167 C   0  0  0  0  0  0  0  0  0  0  0  0
   37.7069  -21.4443   42.0385 C   0  0  0  0  0  0  0  0  0  0  0  0
   38.9780  -20.9575   42.2562 C   0  0  0  0  0  0  0  0  0  0  0  0
   39.2931  -20.1565   43.3357 C   0  0  0  0  0  0  0  0  0  0  0  0
   40.5876  -19.6993   43.4945 O   0  0  0  0  0  0  0  0  0  0  0  0
   38.2766  -19.8567   44.1990 C   0  0  0  0  0  0  0  0  0  0  0  0
   36.9853  -20.3416   43.9920 C   0  0  0  0  0  0  0  0  0  0  0  0
   41.3332  -19.9267   42.8457 H   0  0  0  0  0  0  0  0  0  0  0  0
   31.4199  -23.9855   42.2682 C   0  0  0  0  0  0  0  0  0  0  0  0
   30.6471  -22.8476   42.7759 C   0  0  0  0  0  0  0  0  0  0  0  0
   31.0534  -22.1309   43.8710 C   0  0  0  0  0  0  0  0  0  0  0  0
   30.3014  -21.0916   44.3911 C   0  0  0  0  0  0  0  0  0  0  0  0
   29.0989  -20.7489   43.8004 C   0  0  0  0  0  0  0  0  0  0  0  0
   28.6746  -21.4735   42.6794 C   0  0  0  0  0  0  0  0  0  0  0  0
   27.5776  -21.3561   41.8932 C   0  0  0  0  0  0  0  0  0  0  0  0
   27.6852  -22.3099   40.9220 C   0  0  0  0  0  0  0  0  0  0  0  0
   28.8128  -23.0271   41.0714 N   0  0  0  0  0  0  0  0  0  0  0  0
   29.2563  -24.1130   40.2331 C   0  0  0  0  0  0  0  0  0  0  0  0
   29.4398  -22.5151   42.1689 C   0  0  0  0  0  0  0  0  0  0  0  0
   26.4091  -20.4179   42.0129 C   0  0  0  0  0  0  0  0  0  0  0  0
   25.2871  -20.8761   42.3167 O   0  0  0  0  0  0  0  0  0  0  0  0
   26.6821  -19.0583   41.7750 N   0  0  0  0  0  0  0  0  0  0  0  0
   25.4386  -18.7783   42.3050 H   0  0  0  0  0  0  0  0  0  0  0  0
   26.9168  -17.7935   41.5581 C   0  0  0  0  0  0  0  0  0  0  0  0
   27.5940  -17.3905   40.3886 C   0  0  0  0  0  0  0  0  0  0  0  0
   27.8844  -16.1118   40.0880 C   0  0  0  0  0  0  0  0  0  0  0  0
   27.5072  -15.1272   40.9724 C   0  0  0  0  0  0  0  0  0  0  0  0
   26.8549  -15.4337   42.1167 N   0  0  0  0  0  0  0  0  0  0  0  0
   26.5619  -16.7225   42.4066 C   0  0  0  0  0  0  0  0  0  0  0  0
   27.8318  -13.7530   40.7416 N   0  0  0  0  0  0  0  0  0  0  0  0
   28.5657  -13.4031   39.5506 C   0  0  0  0  0  0  0  0  0  0  0  0
   28.1759  -12.1302   38.8945 C   0  0  0  0  0  0  0  0  0  0  0  0
   27.2531  -11.2578   39.6700 C   0  0  0  0  0  0  0  0  0  0  0  0
   27.4490  -11.3724   41.1783 C   0  0  0  0  0  0  0  0  0  0  0  0
   27.4537  -12.7545   41.7021 C   0  0  0  0  0  0  0  0  0  0  0  0
   27.2978   -9.8738   39.3566 N   0  0  0  0  0  0  0  0  0  0  0  0
   28.5697   -9.2279   39.4131 C   0  0  0  0  0  0  0  0  0  0  0  0
   27.8343   -7.9440   39.7410 C   0  0  0  0  0  0  0  0  0  0  0  0
   26.7342   -8.8951   40.2081 C   0  0  0  0  0  0  0  0  0  0  0  0
   32.0870  -21.3445   36.5195 C   0  0  0  0  0  0  0  0  0  0  0  0
   30.6916  -21.9186   36.4900 C   0  0  0  0  0  0  0  0  0  0  0  0
   30.5142  -23.2618   36.4458 C   0  0  0  0  0  0  0  0  0  0  0  0
   29.1982  -23.7840   36.3769 C   0  0  0  0  0  0  0  0  0  0  0  0
   28.1105  -22.9118   36.3547 C   0  0  0  0  0  0  0  0  0  0  0  0
   28.4148  -21.5365   36.4023 C   0  0  0  0  0  0  0  0  0  0  0  0
   29.6420  -21.0365   36.4709 C   0  0  0  0  0  0  0  0  0  0  0  0
 18 19  2  0  0  0
 19 17  1  0  0  0
 17  1  1  0  0  0
  1  2  1  0  0  0
  2  3  1  0  0  0
  3  4  2  0  0  0
  3  5  1  0  0  0
  5  6  1  0  0  0
  6 20  1  0  0  0
 20 21  1  0  0  0
 21 22  2  0  0  0
 22 23  1  0  0  0
 23 24  2  0  0  0
 24 25  1  0  0  0
 24 26  1  0  0  0
 26 27  2  0  0  0
  6  7  1  0  0  0
  7  8  2  0  0  0
  7  9  1  0  0  0
  9 29  1  0  0  0
 29 30  1  0  0  0
 30 31  2  0  0  0
 31 32  1  0  0  0
 32 33  2  0  0  0
 33 34  1  0  0  0
 34 35  1  0  0  0
 35 40  1  0  0  0
 40 41  2  0  0  0
 40 42  1  0  0  0
 42 44  1  0  0  0
 44 45  2  0  0  0
 45 46  1  0  0  0
 46 47  2  0  0  0
 47 50  1  0  0  0
 50 51  1  0  0  0
 51 52  1  0  0  0
 52 53  1  0  0  0
 53 56  1  0  0  0
 56 57  1  0  0  0
 57 58  1  0  0  0
 58 59  1  0  0  0
 53 54  1  0  0  0
 54 55  1  0  0  0
 47 48  1  0  0  0
 48 49  2  0  0  0
 35 36  2  0  0  0
 36 37  1  0  0  0
 37 38  1  0  0  0
 37 39  1  0  0  0
  9 10  1  0  0  0
 10 11  1  0  0  0
 11 12  1  0  0  0
 12 13  1  0  0  0
 13 14  2  0  0  0
 13 15  1  0  0  0
 15 60  1  0  0  0
 60 61  1  0  0  0
 61 62  2  0  0  0
 62 63  1  0  0  0
 63 64  2  0  0  0
 64 65  1  0  0  0
 65 66  2  0  0  0
 12  1  1  0  0  0
 66 61  1  0  0  0
 11  5  1  0  0  0
 27 21  1  0  0  0
 39 30  1  0  0  0
 39 34  2  0  0  0
 49 44  1  0  0  0
 55 50  1  0  0  0
 59 56  1  0  0  0
 25 28  1  0  0  0
 42 43  1  0  0  0
 15 16  1  0  0  0
M  END
> <minimizedAffinity>
-5.82861

> <CNNscore>
0.3520771861

> <CNNaffinity>
7.0145277977

> <CNN_VS>
2.4696552753

> <CNNaffinity_variance>
0.1282345951

$$$$
[H]Oc1c([H])c([H])c(C([H])([H])[C@@]2([H])C(=O)N(C([H])([H])c3c([H])c([H])c([H])c4c(C(=O)N([H])c5c([H])nc(N6C([H])([H])C([H])([H])C([H])(N7C([H])([H])C([H])([H])C7([H])[H])C([H])([H])C6([H])[H])c([H])c5[H])c([H])n(C([H])([H])[H])c34)C([H])([H])[C@]3([H])N(C(=O)N([H])C([H])([H])c4c([H])c([H])c([H])c([H])c4[H])N(C([H])([H])C([H])=C([H])[H])C([H])([H])C(=O)N23)c([H])c1[H]


 66 74  0  0  0  0  0  0  0  0999 V2000
   33.3365  -21.1147   38.2166 N   0  0  0  0  0  0  0  0  0  0  0  0
   32.2365  -21.6432   37.4300 C   0  0  0  0  0  0  0  0  0  0  0  0
   32.8054  -22.9586   36.9251 C   0  0  0  0  0  0  0  0  0  0  0  0
   32.7341  -23.1703   35.7009 O   0  0  0  0  0  0  0  0  0  0  0  0
   33.3655  -23.8526   37.8375 N   0  0  0  0  0  0  0  0  0  0  0  0
   33.4161  -25.2576   37.5499 C   0  0  0  0  0  0  0  0  0  0  0  0
   32.3352  -25.8111   38.4484 C   0  0  0  0  0  0  0  0  0  0  0  0
   31.5585  -26.6623   38.0504 O   0  0  0  0  0  0  0  0  0  0  0  0
   32.2679  -25.3019   39.7604 N   0  0  0  0  0  0  0  0  0  0  0  0
   33.1518  -24.2063   40.2280 C   0  0  0  0  0  0  0  0  0  0  0  0
   33.8102  -23.4275   39.1383 C   0  0  0  0  0  0  0  0  0  0  0  0
   33.7656  -21.9869   39.2413 N   0  0  0  0  0  0  0  0  0  0  0  0
   34.1976  -21.3204   40.4297 C   0  0  0  0  0  0  0  0  0  0  0  0
   34.0657  -20.0504   40.4546 O   0  0  0  0  0  0  0  0  0  0  0  0
   34.7552  -21.9003   41.5757 N   0  0  0  0  0  0  0  0  0  0  0  0
   34.9050  -22.9074   41.6409 H   0  0  0  0  0  0  0  0  0  0  0  0
   34.3788  -20.8555   37.2348 C   0  0  0  0  0  0  0  0  0  0  0  0
   36.2867  -19.4282   37.6988 C   0  0  0  0  0  0  0  0  0  0  0  0
   35.0328  -19.5755   37.3648 C   0  0  0  0  0  0  0  0  0  0  0  0
   34.6843  -25.9797   37.7260 C   0  0  0  0  0  0  0  0  0  0  0  0
   35.7773  -25.7670   36.7740 C   0  0  0  0  0  0  0  0  0  0  0  0
   36.6656  -24.7034   36.9430 C   0  0  0  0  0  0  0  0  0  0  0  0
   37.6556  -24.4574   36.0160 C   0  0  0  0  0  0  0  0  0  0  0  0
   37.8247  -25.2310   34.8851 C   0  0  0  0  0  0  0  0  0  0  0  0
   38.8396  -24.9318   33.9960 O   0  0  0  0  0  0  0  0  0  0  0  0
   36.9562  -26.2727   34.7147 C   0  0  0  0  0  0  0  0  0  0  0  0
   35.9495  -26.5343   35.6440 C   0  0  0  0  0  0  0  0  0  0  0  0
   39.4796  -24.1573   34.1345 H   0  0  0  0  0  0  0  0  0  0  0  0
   31.3142  -25.7659   40.7694 C   0  0  0  0  0  0  0  0  0  0  0  0
   30.3372  -24.7052   41.0343 C   0  0  0  0  0  0  0  0  0  0  0  0
   29.4319  -24.3055   40.0864 C   0  0  0  0  0  0  0  0  0  0  0  0
   28.5440  -23.2668   40.3081 C   0  0  0  0  0  0  0  0  0  0  0  0
   28.5540  -22.5990   41.5189 C   0  0  0  0  0  0  0  0  0  0  0  0
   29.4739  -23.0004   42.4959 C   0  0  0  0  0  0  0  0  0  0  0  0
   29.6986  -22.5595   43.7570 C   0  0  0  0  0  0  0  0  0  0  0  0
   30.7012  -23.3308   44.2711 C   0  0  0  0  0  0  0  0  0  0  0  0
   31.1184  -24.2421   43.3746 N   0  0  0  0  0  0  0  0  0  0  0  0
   32.1569  -25.2232   43.5683 C   0  0  0  0  0  0  0  0  0  0  0  0
   30.3599  -24.0443   42.2587 C   0  0  0  0  0  0  0  0  0  0  0  0
   29.0480  -21.4311   44.5075 C   0  0  0  0  0  0  0  0  0  0  0  0
   28.5732  -21.6469   45.6430 O   0  0  0  0  0  0  0  0  0  0  0  0
   29.0330  -20.1840   43.8562 N   0  0  0  0  0  0  0  0  0  0  0  0
   28.6540  -19.6273   45.0612 H   0  0  0  0  0  0  0  0  0  0  0  0
   29.0103  -19.0200   43.2676 C   0  0  0  0  0  0  0  0  0  0  0  0
   29.9283  -18.0185   43.6458 C   0  0  0  0  0  0  0  0  0  0  0  0
   29.9717  -16.7900   43.0992 C   0  0  0  0  0  0  0  0  0  0  0  0
   29.0647  -16.4777   42.1124 C   0  0  0  0  0  0  0  0  0  0  0  0
   28.1518  -17.3842   41.6955 N   0  0  0  0  0  0  0  0  0  0  0  0
   28.1207  -18.6192   42.2473 C   0  0  0  0  0  0  0  0  0  0  0  0
   29.0196  -15.1733   41.5264 N   0  0  0  0  0  0  0  0  0  0  0  0
   29.7045  -14.0904   42.1881 C   0  0  0  0  0  0  0  0  0  0  0  0
   30.3741  -13.1046   41.3036 C   0  0  0  0  0  0  0  0  0  0  0  0
   30.0567  -13.2145   39.8540 C   0  0  0  0  0  0  0  0  0  0  0  0
   28.6428  -13.7213   39.5887 C   0  0  0  0  0  0  0  0  0  0  0  0
   28.2768  -14.9544   40.3170 C   0  0  0  0  0  0  0  0  0  0  0  0
   30.2140  -12.0265   39.0927 N   0  0  0  0  0  0  0  0  0  0  0  0
   29.0278  -11.3765   38.6362 C   0  0  0  0  0  0  0  0  0  0  0  0
   29.8391  -10.8502   37.4693 C   0  0  0  0  0  0  0  0  0  0  0  0
   30.7409  -12.0431   37.7801 C   0  0  0  0  0  0  0  0  0  0  0  0
   35.1572  -21.0868   42.7198 C   0  0  0  0  0  0  0  0  0  0  0  0
   36.6587  -20.9394   42.7589 C   0  0  0  0  0  0  0  0  0  0  0  0
   37.4045  -21.3361   41.6987 C   0  0  0  0  0  0  0  0  0  0  0  0
   38.8164  -21.2292   41.7674 C   0  0  0  0  0  0  0  0  0  0  0  0
   39.4142  -20.7208   42.9199 C   0  0  0  0  0  0  0  0  0  0  0  0
   38.5405  -20.3427   43.9591 C   0  0  0  0  0  0  0  0  0  0  0  0
   37.2178  -20.4345   43.9046 C   0  0  0  0  0  0  0  0  0  0  0  0
 18 19  2  0  0  0
 19 17  1  0  0  0
 17  1  1  0  0  0
  1  2  1  0  0  0
  2  3  1  0  0  0
  3  4  2  0  0  0
  3  5  1  0  0  0
  5  6  1  0  0  0
  6 20  1  0  0  0
 20 21  1  0  0  0
 21 22  2  0  0  0
 22 23  1  0  0  0
 23 24  2  0  0  0
 24 25  1  0  0  0
 24 26  1  0  0  0
 26 27  2  0  0  0
  6  7  1  0  0  0
  7  8  2  0  0  0
  7  9  1  0  0  0
  9 29  1  0  0  0
 29 30  1  0  0  0
 30 31  2  0  0  0
 31 32  1  0  0  0
 32 33  2  0  0  0
 33 34  1  0  0  0
 34 35  1  0  0  0
 35 40  1  0  0  0
 40 41  2  0  0  0
 40 42  1  0  0  0
 42 44  1  0  0  0
 44 45  2  0  0  0
 45 46  1  0  0  0
 46 47  2  0  0  0
 47 50  1  0  0  0
 50 51  1  0  0  0
 51 52  1  0  0  0
 52 53  1  0  0  0
 53 56  1  0  0  0
 56 57  1  0  0  0
 57 58  1  0  0  0
 58 59  1  0  0  0
 53 54  1  0  0  0
 54 55  1  0  0  0
 47 48  1  0  0  0
 48 49  2  0  0  0
 35 36  2  0  0  0
 36 37  1  0  0  0
 37 38  1  0  0  0
 37 39  1  0  0  0
  9 10  1  0  0  0
 10 11  1  0  0  0
 11 12  1  0  0  0
 12 13  1  0  0  0
 13 14  2  0  0  0
 13 15  1  0  0  0
 15 60  1  0  0  0
 60 61  1  0  0  0
 61 62  2  0  0  0
 62 63  1  0  0  0
 63 64  2  0  0  0
 64 65  1  0  0  0
 65 66  2  0  0  0
 12  1  1  0  0  0
 66 61  1  0  0  0
 11  5  1  0  0  0
 27 21  1  0  0  0
 39 30  1  0  0  0
 39 34  2  0  0  0
 49 44  1  0  0  0
 55 50  1  0  0  0
 59 56  1  0  0  0
 25 28  1  0  0  0
 42 43  1  0  0  0
 15 16  1  0  0  0
M  END
> <minimizedAffinity>
-5.91304

> <CNNscore>
0.2137110680

> <CNNaffinity>
6.8186593056

> <CNN_VS>
1.4572229385

> <CNNaffinity_variance>
0.2653311193

$$$$
[H]Oc1c([H])c([H])c(C([H])([H])[C@@]2([H])C(=O)N(C([H])([H])c3c([H])c([H])c([H])c4c(C(=O)N([H])c5c([H])nc(N6C([H])([H])C([H])([H])C([H])(N7C([H])([H])C([H])([H])C7([H])[H])C([H])([H])C6([H])[H])c([H])c5[H])c([H])n(C([H])([H])[H])c34)C([H])([H])[C@]3([H])N(C(=O)N([H])C([H])([H])c4c([H])c([H])c([H])c([H])c4[H])N(C([H])([H])C([H])=C([H])[H])C([H])([H])C(=O)N23)c([H])c1[H]


 66 74  0  0  0  0  0  0  0  0999 V2000
   33.4181  -20.8987   38.0835 N   0  0  0  0  0  0  0  0  0  0  0  0
   32.4068  -21.0003   37.0467 C   0  0  0  0  0  0  0  0  0  0  0  0
   32.6658  -22.3860   36.4797 C   0  0  0  0  0  0  0  0  0  0  0  0
   32.7995  -22.4739   35.2457 O   0  0  0  0  0  0  0  0  0  0  0  0
   32.7357  -23.4746   37.3490 N   0  0  0  0  0  0  0  0  0  0  0  0
   32.4388  -24.8007   36.8878 C   0  0  0  0  0  0  0  0  0  0  0  0
   31.0783  -25.0566   37.4926 C   0  0  0  0  0  0  0  0  0  0  0  0
   30.1926  -25.5931   36.8492 O   0  0  0  0  0  0  0  0  0  0  0  0
   30.8825  -24.6503   38.8274 N   0  0  0  0  0  0  0  0  0  0  0  0
   31.9238  -23.9207   39.5911 C   0  0  0  0  0  0  0  0  0  0  0  0
   32.9957  -23.3060   38.7541 C   0  0  0  0  0  0  0  0  0  0  0  0
   33.3480  -21.9343   39.0413 N   0  0  0  0  0  0  0  0  0  0  0  0
   33.6899  -21.5245   40.3673 C   0  0  0  0  0  0  0  0  0  0  0  0
   33.9281  -20.2817   40.5396 O   0  0  0  0  0  0  0  0  0  0  0  0
   33.7983  -22.3320   41.5062 N   0  0  0  0  0  0  0  0  0  0  0  0
   33.6335  -23.3377   41.4605 H   0  0  0  0  0  0  0  0  0  0  0  0
   34.6753  -20.9036   37.3508 C   0  0  0  0  0  0  0  0  0  0  0  0
   36.6231  -19.4650   37.5214 C   0  0  0  0  0  0  0  0  0  0  0  0
   35.3485  -19.6284   37.2885 C   0  0  0  0  0  0  0  0  0  0  0  0
   33.3763  -25.8914   37.1912 C   0  0  0  0  0  0  0  0  0  0  0  0
   34.5843  -26.0553   36.3787 C   0  0  0  0  0  0  0  0  0  0  0  0
   34.6702  -27.0836   35.4384 C   0  0  0  0  0  0  0  0  0  0  0  0
   35.8276  -27.2850   34.7174 C   0  0  0  0  0  0  0  0  0  0  0  0
   36.9512  -26.4991   34.8793 C   0  0  0  0  0  0  0  0  0  0  0  0
   38.0793  -26.7529   34.1224 O   0  0  0  0  0  0  0  0  0  0  0  0
   36.8721  -25.4919   35.8001 C   0  0  0  0  0  0  0  0  0  0  0  0
   35.7079  -25.2756   36.5371 C   0  0  0  0  0  0  0  0  0  0  0  0
   38.1252  -27.5020   33.4403 H   0  0  0  0  0  0  0  0  0  0  0  0
   29.6429  -24.8691   39.5749 C   0  0  0  0  0  0  0  0  0  0  0  0
   28.7965  -23.6769   39.4660 C   0  0  0  0  0  0  0  0  0  0  0  0
   28.5560  -23.0709   38.2606 C   0  0  0  0  0  0  0  0  0  0  0  0
   27.8051  -21.9127   38.1557 C   0  0  0  0  0  0  0  0  0  0  0  0
   27.2704  -21.3334   39.2919 C   0  0  0  0  0  0  0  0  0  0  0  0
   27.5083  -21.9454   40.5291 C   0  0  0  0  0  0  0  0  0  0  0  0
   27.1048  -21.6288   41.7830 C   0  0  0  0  0  0  0  0  0  0  0  0
   27.6076  -22.5896   42.6128 C   0  0  0  0  0  0  0  0  0  0  0  0
   28.3175  -23.5004   41.9238 N   0  0  0  0  0  0  0  0  0  0  0  0
   28.9908  -24.6536   42.4675 C   0  0  0  0  0  0  0  0  0  0  0  0
   28.2650  -23.1074   40.6190 C   0  0  0  0  0  0  0  0  0  0  0  0
   26.2956  -20.4557   42.2615 C   0  0  0  0  0  0  0  0  0  0  0  0
   25.3273  -20.6534   43.0262 O   0  0  0  0  0  0  0  0  0  0  0  0
   26.7106  -19.1916   41.8039 N   0  0  0  0  0  0  0  0  0  0  0  0
   25.8712  -18.6403   42.7511 H   0  0  0  0  0  0  0  0  0  0  0  0
   27.0812  -18.0114   41.3898 C   0  0  0  0  0  0  0  0  0  0  0  0
   27.0474  -16.9104   42.2704 C   0  0  0  0  0  0  0  0  0  0  0  0
   27.4035  -15.6593   41.9275 C   0  0  0  0  0  0  0  0  0  0  0  0
   27.8232  -15.4259   40.6378 C   0  0  0  0  0  0  0  0  0  0  0  0
   27.8821  -16.4300   39.7338 N   0  0  0  0  0  0  0  0  0  0  0  0
   27.5279  -17.6862   40.0907 C   0  0  0  0  0  0  0  0  0  0  0  0
   28.1646  -14.1103   40.1909 N   0  0  0  0  0  0  0  0  0  0  0  0
   29.4331  -13.5498   40.5862 C   0  0  0  0  0  0  0  0  0  0  0  0
   30.1304  -12.7291   39.5650 C   0  0  0  0  0  0  0  0  0  0  0  0
   29.3339  -12.3855   38.3560 C   0  0  0  0  0  0  0  0  0  0  0  0
   27.8437  -12.2365   38.6448 C   0  0  0  0  0  0  0  0  0  0  0  0
   27.2385  -13.3612   39.3888 C   0  0  0  0  0  0  0  0  0  0  0  0
   29.7343  -11.2135   37.6619 N   0  0  0  0  0  0  0  0  0  0  0  0
   31.1213  -11.0733   37.3542 C   0  0  0  0  0  0  0  0  0  0  0  0
   30.9182   -9.5724   37.4069 C   0  0  0  0  0  0  0  0  0  0  0  0
   29.7147   -9.9382   38.2733 C   0  0  0  0  0  0  0  0  0  0  0  0
   34.1641  -21.7702   42.8035 C   0  0  0  0  0  0  0  0  0  0  0  0
   35.6610  -21.6053   42.9021 C   0  0  0  0  0  0  0  0  0  0  0  0
   36.4806  -22.5736   42.4245 C   0  0  0  0  0  0  0  0  0  0  0  0
   37.8834  -22.4226   42.5619 C   0  0  0  0  0  0  0  0  0  0  0  0
   38.3968  -21.2855   43.1844 C   0  0  0  0  0  0  0  0  0  0  0  0
   37.4511  -20.3472   43.6440 C   0  0  0  0  0  0  0  0  0  0  0  0
   36.1364  -20.4760   43.5176 C   0  0  0  0  0  0  0  0  0  0  0  0
 18 19  2  0  0  0
 19 17  1  0  0  0
 17  1  1  0  0  0
  1  2  1  0  0  0
  2  3  1  0  0  0
  3  4  2  0  0  0
  3  5  1  0  0  0
  5  6  1  0  0  0
  6 20  1  0  0  0
 20 21  1  0  0  0
 21 22  2  0  0  0
 22 23  1  0  0  0
 23 24  2  0  0  0
 24 25  1  0  0  0
 24 26  1  0  0  0
 26 27  2  0  0  0
  6  7  1  0  0  0
  7  8  2  0  0  0
  7  9  1  0  0  0
  9 29  1  0  0  0
 29 30  1  0  0  0
 30 31  2  0  0  0
 31 32  1  0  0  0
 32 33  2  0  0  0
 33 34  1  0  0  0
 34 35  1  0  0  0
 35 40  1  0  0  0
 40 41  2  0  0  0
 40 42  1  0  0  0
 42 44  1  0  0  0
 44 45  2  0  0  0
 45 46  1  0  0  0
 46 47  2  0  0  0
 47 50  1  0  0  0
 50 51  1  0  0  0
 51 52  1  0  0  0
 52 53  1  0  0  0
 53 56  1  0  0  0
 56 57  1  0  0  0
 57 58  1  0  0  0
 58 59  1  0  0  0
 53 54  1  0  0  0
 54 55  1  0  0  0
 47 48  1  0  0  0
 48 49  2  0  0  0
 35 36  2  0  0  0
 36 37  1  0  0  0
 37 38  1  0  0  0
 37 39  1  0  0  0
  9 10  1  0  0  0
 10 11  1  0  0  0
 11 12  1  0  0  0
 12 13  1  0  0  0
 13 14  2  0  0  0
 13 15  1  0  0  0
 15 60  1  0  0  0
 60 61  1  0  0  0
 61 62  2  0  0  0
 62 63  1  0  0  0
 63 64  2  0  0  0
 64 65  1  0  0  0
 65 66  2  0  0  0
 12  1  1  0  0  0
 66 61  1  0  0  0
 11  5  1  0  0  0
 27 21  1  0  0  0
 39 30  1  0  0  0
 39 34  2  0  0  0
 49 44  1  0  0  0
 55 50  1  0  0  0
 59 56  1  0  0  0
 25 28  1  0  0  0
 42 43  1  0  0  0
 15 16  1  0  0  0
M  END
> <minimizedAffinity>
-6.38293

> <CNNscore>
0.1751045734

> <CNNaffinity>
6.8392610550

> <CNN_VS>
1.1975859404

> <CNNaffinity_variance>
0.2112922668

$$$$
[H]Oc1c([H])c([H])c(C([H])([H])[C@@]2([H])C(=O)N(C([H])([H])c3c([H])c([H])c([H])c4c(C(=O)N([H])c5c([H])nc(N6C([H])([H])C([H])([H])C([H])(N7C([H])([H])C([H])([H])C7([H])[H])C([H])([H])C6([H])[H])c([H])c5[H])c([H])n(C([H])([H])[H])c34)C([H])([H])[C@]3([H])N(C(=O)N([H])C([H])([H])c4c([H])c([H])c([H])c([H])c4[H])N(C([H])([H])C([H])=C([H])[H])C([H])([H])C(=O)N23)c([H])c1[H]


 66 74  0  0  0  0  0  0  0  0999 V2000
   33.0453  -20.0270   35.3741 N   0  0  0  0  0  0  0  0  0  0  0  0
   33.7783  -19.9164   34.1257 C   0  0  0  0  0  0  0  0  0  0  0  0
   34.6863  -18.7272   34.3903 C   0  0  0  0  0  0  0  0  0  0  0  0
   34.6807  -17.8148   33.5443 O   0  0  0  0  0  0  0  0  0  0  0  0
   35.4720  -18.7143   35.5427 N   0  0  0  0  0  0  0  0  0  0  0  0
   36.6875  -17.9529   35.5924 C   0  0  0  0  0  0  0  0  0  0  0  0
   37.7460  -19.0266   35.4981 C   0  0  0  0  0  0  0  0  0  0  0  0
   38.7301  -18.8821   34.7931 O   0  0  0  0  0  0  0  0  0  0  0  0
   37.5449  -20.1949   36.2593 N   0  0  0  0  0  0  0  0  0  0  0  0
   36.3115  -20.4174   37.0527 C   0  0  0  0  0  0  0  0  0  0  0  0
   35.1627  -19.5409   36.6792 C   0  0  0  0  0  0  0  0  0  0  0  0
   33.8786  -20.1799   36.5041 N   0  0  0  0  0  0  0  0  0  0  0  0
   33.3322  -21.0240   37.5201 C   0  0  0  0  0  0  0  0  0  0  0  0
   32.2211  -21.5950   37.2544 O   0  0  0  0  0  0  0  0  0  0  0  0
   33.8741  -21.2972   38.7819 N   0  0  0  0  0  0  0  0  0  0  0  0
   34.7545  -20.8785   39.0826 H   0  0  0  0  0  0  0  0  0  0  0  0
   32.2548  -18.8065   35.4277 C   0  0  0  0  0  0  0  0  0  0  0  0
   30.1933  -19.9423   34.8338 C   0  0  0  0  0  0  0  0  0  0  0  0
   30.8270  -19.0084   35.4907 C   0  0  0  0  0  0  0  0  0  0  0  0
   36.9272  -17.0598   36.7350 C   0  0  0  0  0  0  0  0  0  0  0  0
   36.3437  -15.7160   36.7389 C   0  0  0  0  0  0  0  0  0  0  0  0
   35.0558  -15.5028   36.2441 C   0  0  0  0  0  0  0  0  0  0  0  0
   34.5252  -14.2320   36.1834 C   0  0  0  0  0  0  0  0  0  0  0  0
   35.2218  -13.1143   36.5978 C   0  0  0  0  0  0  0  0  0  0  0  0
   34.6305  -11.8681   36.5124 O   0  0  0  0  0  0  0  0  0  0  0  0
   36.4839  -13.3183   37.0816 C   0  0  0  0  0  0  0  0  0  0  0  0
   37.0343  -14.5981   37.1495 C   0  0  0  0  0  0  0  0  0  0  0  0
   33.6921  -11.7296   36.1536 H   0  0  0  0  0  0  0  0  0  0  0  0
   38.4963  -21.3060   36.3183 C   0  0  0  0  0  0  0  0  0  0  0  0
   39.1532  -21.3102   37.6290 C   0  0  0  0  0  0  0  0  0  0  0  0
   40.0380  -20.3299   37.9954 C   0  0  0  0  0  0  0  0  0  0  0  0
   40.7057  -20.3564   39.2078 C   0  0  0  0  0  0  0  0  0  0  0  0
   40.4858  -21.3964   40.0923 C   0  0  0  0  0  0  0  0  0  0  0  0
   39.5821  -22.4030   39.7290 C   0  0  0  0  0  0  0  0  0  0  0  0
   39.1559  -23.5100   40.3833 C   0  0  0  0  0  0  0  0  0  0  0  0
   38.2472  -24.1233   39.5692 C   0  0  0  0  0  0  0  0  0  0  0  0
   38.0884  -23.4409   38.4215 N   0  0  0  0  0  0  0  0  0  0  0  0
   37.2125  -23.7892   37.3305 C   0  0  0  0  0  0  0  0  0  0  0  0
   38.9198  -22.3634   38.5080 C   0  0  0  0  0  0  0  0  0  0  0  0
   39.5722  -24.0509   41.7227 C   0  0  0  0  0  0  0  0  0  0  0  0
   40.7831  -24.0525   42.0309 O   0  0  0  0  0  0  0  0  0  0  0  0
   38.5340  -24.5177   42.5498 N   0  0  0  0  0  0  0  0  0  0  0  0
   39.4507  -24.5468   43.5814 H   0  0  0  0  0  0  0  0  0  0  0  0
   37.5844  -24.9547   43.3302 C   0  0  0  0  0  0  0  0  0  0  0  0
   37.4788  -24.4750   44.6521 C   0  0  0  0  0  0  0  0  0  0  0  0
   36.5380  -24.8749   45.5266 C   0  0  0  0  0  0  0  0  0  0  0  0
   35.6192  -25.8148   45.1189 C   0  0  0  0  0  0  0  0  0  0  0  0
   35.6551  -26.3240   43.8665 N   0  0  0  0  0  0  0  0  0  0  0  0
   36.6016  -25.9102   42.9925 C   0  0  0  0  0  0  0  0  0  0  0  0
   34.6259  -26.3241   46.0137 N   0  0  0  0  0  0  0  0  0  0  0  0
   33.7488  -25.3936   46.6804 C   0  0  0  0  0  0  0  0  0  0  0  0
   32.3411  -25.8316   46.8509 C   0  0  0  0  0  0  0  0  0  0  0  0
   32.0642  -27.2593   46.5359 C   0  0  0  0  0  0  0  0  0  0  0  0
   33.2463  -28.1765   46.8322 C   0  0  0  0  0  0  0  0  0  0  0  0
   34.5349  -27.7365   46.2573 C   0  0  0  0  0  0  0  0  0  0  0  0
   30.9342  -27.8287   47.1798 N   0  0  0  0  0  0  0  0  0  0  0  0
   29.6493  -27.5421   46.6277 C   0  0  0  0  0  0  0  0  0  0  0  0
   29.0795  -27.7181   48.0210 C   0  0  0  0  0  0  0  0  0  0  0  0
   30.5081  -27.4021   48.4593 C   0  0  0  0  0  0  0  0  0  0  0  0
   33.1956  -22.1823   39.7246 C   0  0  0  0  0  0  0  0  0  0  0  0
   33.7622  -22.0066   41.1123 C   0  0  0  0  0  0  0  0  0  0  0  0
   33.8506  -23.0717   41.9461 C   0  0  0  0  0  0  0  0  0  0  0  0
   34.3466  -22.8820   43.2605 C   0  0  0  0  0  0  0  0  0  0  0  0
   34.7336  -21.6080   43.6744 C   0  0  0  0  0  0  0  0  0  0  0  0
   34.5952  -20.5764   42.7242 C   0  0  0  0  0  0  0  0  0  0  0  0
   34.1361  -20.7426   41.4903 C   0  0  0  0  0  0  0  0  0  0  0  0
 18 19  2  0  0  0
 19 17  1  0  0  0
 17  1  1  0  0  0
  1  2  1  0  0  0
  2  3  1  0  0  0
  3  4  2  0  0  0
  3  5  1  0  0  0
  5  6  1  0  0  0
  6 20  1  0  0  0
 20 21  1  0  0  0
 21 22  2  0  0  0
 22 23  1  0  0  0
 23 24  2  0  0  0
 24 25  1  0  0  0
 24 26  1  0  0  0
 26 27  2  0  0  0
  6  7  1  0  0  0
  7  8  2  0  0  0
  7  9  1  0  0  0
  9 29  1  0  0  0
 29 30  1  0  0  0
 30 31  2  0  0  0
 31 32  1  0  0  0
 32 33  2  0  0  0
 33 34  1  0  0  0
 34 35  1  0  0  0
 35 40  1  0  0  0
 40 41  2  0  0  0
 40 42  1  0  0  0
 42 44  1  0  0  0
 44 45  2  0  0  0
 45 46  1  0  0  0
 46 47  2  0  0  0
 47 50  1  0  0  0
 50 51  1  0  0  0
 51 52  1  0  0  0
 52 53  1  0  0  0
 53 56  1  0  0  0
 56 57  1  0  0  0
 57 58  1  0  0  0
 58 59  1  0  0  0
 53 54  1  0  0  0
 54 55  1  0  0  0
 47 48  1  0  0  0
 48 49  2  0  0  0
 35 36  2  0  0  0
 36 37  1  0  0  0
 37 38  1  0  0  0
 37 39  1  0  0  0
  9 10  1  0  0  0
 10 11  1  0  0  0
 11 12  1  0  0  0
 12 13  1  0  0  0
 13 14  2  0  0  0
 13 15  1  0  0  0
 15 60  1  0  0  0
 60 61  1  0  0  0
 61 62  2  0  0  0
 62 63  1  0  0  0
 63 64  2  0  0  0
 64 65  1  0  0  0
 65 66  2  0  0  0
 12  1  1  0  0  0
 66 61  1  0  0  0
 11  5  1  0  0  0
 27 21  1  0  0  0
 39 30  1  0  0  0
 39 34  2  0  0  0
 49 44  1  0  0  0
 55 50  1  0  0  0
 59 56  1  0  0  0
 25 28  1  0  0  0
 42 43  1  0  0  0
 15 16  1  0  0  0
M  END
> <minimizedAffinity>
-6.38285

> <CNNscore>
0.1743416339

> <CNNaffinity>
7.0137262344

> <CNN_VS>
1.2227845192

> <CNNaffinity_variance>
0.1207631081

$$$$
[H]Oc1c([H])c([H])c(C([H])([H])[C@@]2([H])C(=O)N(C([H])([H])c3c([H])c([H])c([H])c4c(C(=O)N([H])c5c([H])nc(N6C([H])([H])C([H])([H])C([H])(N7C([H])([H])C([H])([H])C7([H])[H])C([H])([H])C6([H])[H])c([H])c5[H])c([H])n(C([H])([H])[H])c34)C([H])([H])[C@]3([H])N(C(=O)N([H])C([H])([H])c4c([H])c([H])c([H])c([H])c4[H])N(C([H])([H])C([H])=C([H])[H])C([H])([H])C(=O)N23)c([H])c1[H]


 66 74  0  0  0  0  0  0  0  0999 V2000
   37.7279  -21.7000   36.2412 N   0  0  0  0  0  0  0  0  0  0  0  0
   38.4309  -22.8167   35.6355 C   0  0  0  0  0  0  0  0  0  0  0  0
   39.8220  -22.6821   36.2315 C   0  0  0  0  0  0  0  0  0  0  0  0
   40.7784  -22.6810   35.4354 O   0  0  0  0  0  0  0  0  0  0  0  0
   39.9619  -22.5732   37.6150 N   0  0  0  0  0  0  0  0  0  0  0  0
   41.1771  -22.9772   38.2628 C   0  0  0  0  0  0  0  0  0  0  0  0
   40.7772  -24.2782   38.9183 C   0  0  0  0  0  0  0  0  0  0  0  0
   41.5135  -25.2495   38.8934 O   0  0  0  0  0  0  0  0  0  0  0  0
   39.5221  -24.3160   39.5571 N   0  0  0  0  0  0  0  0  0  0  0  0
   38.5828  -23.1687   39.5200 C   0  0  0  0  0  0  0  0  0  0  0  0
   38.8694  -22.1617   38.4563 C   0  0  0  0  0  0  0  0  0  0  0  0
   37.7529  -21.7185   37.6532 N   0  0  0  0  0  0  0  0  0  0  0  0
   36.5589  -21.2228   38.2628 C   0  0  0  0  0  0  0  0  0  0  0  0
   35.6014  -20.9108   37.4774 O   0  0  0  0  0  0  0  0  0  0  0  0
   36.3157  -21.0347   39.6289 N   0  0  0  0  0  0  0  0  0  0  0  0
   37.0266  -21.2497   40.3284 H   0  0  0  0  0  0  0  0  0  0  0  0
   38.3885  -20.5269   35.6890 C   0  0  0  0  0  0  0  0  0  0  0  0
   37.1769  -18.4430   35.4028 C   0  0  0  0  0  0  0  0  0  0  0  0
   37.5235  -19.6244   34.9675 C   0  0  0  0  0  0  0  0  0  0  0  0
   41.8149  -22.0648   39.2226 C   0  0  0  0  0  0  0  0  0  0  0  0
   42.4132  -20.8152   38.7465 C   0  0  0  0  0  0  0  0  0  0  0  0
   42.9620  -20.7370   37.4652 C   0  0  0  0  0  0  0  0  0  0  0  0
   43.5855  -19.5856   37.0342 C   0  0  0  0  0  0  0  0  0  0  0  0
   43.7051  -18.4625   37.8282 C   0  0  0  0  0  0  0  0  0  0  0  0
   44.3403  -17.3390   37.3341 O   0  0  0  0  0  0  0  0  0  0  0  0
   43.1705  -18.5351   39.0842 C   0  0  0  0  0  0  0  0  0  0  0  0
   42.5365  -19.6930   39.5344 C   0  0  0  0  0  0  0  0  0  0  0  0
   44.7310  -17.2962   36.3992 H   0  0  0  0  0  0  0  0  0  0  0  0
   39.0075  -25.4804   40.2799 C   0  0  0  0  0  0  0  0  0  0  0  0
   38.3309  -25.0309   41.5005 C   0  0  0  0  0  0  0  0  0  0  0  0
   39.0131  -24.4199   42.5199 C   0  0  0  0  0  0  0  0  0  0  0  0
   38.3931  -24.0437   43.6990 C   0  0  0  0  0  0  0  0  0  0  0  0
   37.0421  -24.2821   43.8731 C   0  0  0  0  0  0  0  0  0  0  0  0
   36.3344  -24.9044   42.8369 C   0  0  0  0  0  0  0  0  0  0  0  0
   35.0277  -25.2396   42.7130 C   0  0  0  0  0  0  0  0  0  0  0  0
   34.8805  -25.8008   41.4769 C   0  0  0  0  0  0  0  0  0  0  0  0
   36.0523  -25.8333   40.8181 N   0  0  0  0  0  0  0  0  0  0  0  0
   36.2767  -26.3524   39.4918 C   0  0  0  0  0  0  0  0  0  0  0  0
   36.9706  -25.2774   41.6591 C   0  0  0  0  0  0  0  0  0  0  0  0
   33.9034  -25.0934   43.7003 C   0  0  0  0  0  0  0  0  0  0  0  0
   33.5895  -26.0679   44.4166 O   0  0  0  0  0  0  0  0  0  0  0  0
   33.2823  -23.8318   43.7462 N   0  0  0  0  0  0  0  0  0  0  0  0
   32.6727  -24.2417   44.9150 H   0  0  0  0  0  0  0  0  0  0  0  0
   32.6948  -22.6684   43.8028 C   0  0  0  0  0  0  0  0  0  0  0  0
   32.5692  -21.9992   45.0378 C   0  0  0  0  0  0  0  0  0  0  0  0
   31.9731  -20.8028   45.1900 C   0  0  0  0  0  0  0  0  0  0  0  0
   31.4438  -20.1866   44.0792 C   0  0  0  0  0  0  0  0  0  0  0  0
   31.5234  -20.7652   42.8594 N   0  0  0  0  0  0  0  0  0  0  0  0
   32.1307  -21.9657   42.7161 C   0  0  0  0  0  0  0  0  0  0  0  0
   30.7490  -18.9398   44.1778 N   0  0  0  0  0  0  0  0  0  0  0  0
   30.6689  -18.2889   45.4621 C   0  0  0  0  0  0  0  0  0  0  0  0
   30.7707  -16.8083   45.4506 C   0  0  0  0  0  0  0  0  0  0  0  0
   30.6991  -16.1645   44.1110 C   0  0  0  0  0  0  0  0  0  0  0  0
   29.8213  -16.9302   43.1263 C   0  0  0  0  0  0  0  0  0  0  0  0
   30.1216  -18.3733   43.0168 C   0  0  0  0  0  0  0  0  0  0  0  0
   30.2525  -14.8169   44.0935 N   0  0  0  0  0  0  0  0  0  0  0  0
   29.1350  -14.4840   44.9172 C   0  0  0  0  0  0  0  0  0  0  0  0
   28.8075  -13.3876   43.9236 C   0  0  0  0  0  0  0  0  0  0  0  0
   29.6187  -14.2533   42.9615 C   0  0  0  0  0  0  0  0  0  0  0  0
   35.0396  -20.5111   40.1082 C   0  0  0  0  0  0  0  0  0  0  0  0
   35.1089  -20.2312   41.5896 C   0  0  0  0  0  0  0  0  0  0  0  0
   34.5292  -19.1146   42.0943 C   0  0  0  0  0  0  0  0  0  0  0  0
   34.6387  -18.8450   43.4817 C   0  0  0  0  0  0  0  0  0  0  0  0
   35.3388  -19.7282   44.3027 C   0  0  0  0  0  0  0  0  0  0  0  0
   35.9017  -20.8538   43.6684 C   0  0  0  0  0  0  0  0  0  0  0  0
   35.8025  -21.1185   42.3719 C   0  0  0  0  0  0  0  0  0  0  0  0
 18 19  2  0  0  0
 19 17  1  0  0  0
 17  1  1  0  0  0
  1  2  1  0  0  0
  2  3  1  0  0  0
  3  4  2  0  0  0
  3  5  1  0  0  0
  5  6  1  0  0  0
  6 20  1  0  0  0
 20 21  1  0  0  0
 21 22  2  0  0  0
 22 23  1  0  0  0
 23 24  2  0  0  0
 24 25  1  0  0  0
 24 26  1  0  0  0
 26 27  2  0  0  0
  6  7  1  0  0  0
  7  8  2  0  0  0
  7  9  1  0  0  0
  9 29  1  0  0  0
 29 30  1  0  0  0
 30 31  2  0  0  0
 31 32  1  0  0  0
 32 33  2  0  0  0
 33 34  1  0  0  0
 34 35  1  0  0  0
 35 40  1  0  0  0
 40 41  2  0  0  0
 40 42  1  0  0  0
 42 44  1  0  0  0
 44 45  2  0  0  0
 45 46  1  0  0  0
 46 47  2  0  0  0
 47 50  1  0  0  0
 50 51  1  0  0  0
 51 52  1  0  0  0
 52 53  1  0  0  0
 53 56  1  0  0  0
 56 57  1  0  0  0
 57 58  1  0  0  0
 58 59  1  0  0  0
 53 54  1  0  0  0
 54 55  1  0  0  0
 47 48  1  0  0  0
 48 49  2  0  0  0
 35 36  2  0  0  0
 36 37  1  0  0  0
 37 38  1  0  0  0
 37 39  1  0  0  0
  9 10  1  0  0  0
 10 11  1  0  0  0
 11 12  1  0  0  0
 12 13  1  0  0  0
 13 14  2  0  0  0
 13 15  1  0  0  0
 15 60  1  0  0  0
 60 61  1  0  0  0
 61 62  2  0  0  0
 62 63  1  0  0  0
 63 64  2  0  0  0
 64 65  1  0  0  0
 65 66  2  0  0  0
 12  1  1  0  0  0
 66 61  1  0  0  0
 11  5  1  0  0  0
 27 21  1  0  0  0
 39 30  1  0  0  0
 39 34  2  0  0  0
 49 44  1  0  0  0
 55 50  1  0  0  0
 59 56  1  0  0  0
 25 28  1  0  0  0
 42 43  1  0  0  0
 15 16  1  0  0  0
M  END
> <minimizedAffinity>
-4.92115

> <CNNscore>
0.1741838753

> <CNNaffinity>
6.7575173378

> <CNN_VS>
1.1770505905

> <CNNaffinity_variance>
0.2322796285

$$$$
[H]Oc1c([H])c([H])c(C([H])([H])[C@@]2([H])C(=O)N(C([H])([H])c3c([H])c([H])c([H])c4c(C(=O)N([H])c5c([H])nc(N6C([H])([H])C([H])([H])C([H])(N7C([H])([H])C([H])([H])C7([H])[H])C([H])([H])C6([H])[H])c([H])c5[H])c([H])n(C([H])([H])[H])c34)C([H])([H])[C@]3([H])N(C(=O)N([H])C([H])([H])c4c([H])c([H])c([H])c([H])c4[H])N(C([H])([H])C([H])=C([H])[H])C([H])([H])C(=O)N23)c([H])c1[H]


 66 74  0  0  0  0  0  0  0  0999 V2000
   40.5425  -22.2859   35.7870 N   0  0  0  0  0  0  0  0  0  0  0  0
   40.7451  -21.4309   36.9428 C   0  0  0  0  0  0  0  0  0  0  0  0
   39.8089  -20.2701   36.6519 C   0  0  0  0  0  0  0  0  0  0  0  0
   40.2930  -19.1257   36.7182 O   0  0  0  0  0  0  0  0  0  0  0  0
   38.4763  -20.5336   36.3353 N   0  0  0  0  0  0  0  0  0  0  0  0
   37.4576  -19.5524   36.5780 C   0  0  0  0  0  0  0  0  0  0  0  0
   36.7490  -20.1141   37.7881 C   0  0  0  0  0  0  0  0  0  0  0  0
   36.4147  -19.3948   38.7138 O   0  0  0  0  0  0  0  0  0  0  0  0
   36.4926  -21.4995   37.7962 N   0  0  0  0  0  0  0  0  0  0  0  0
   36.9700  -22.3968   36.7159 C   0  0  0  0  0  0  0  0  0  0  0  0
   38.0517  -21.8243   35.8617 C   0  0  0  0  0  0  0  0  0  0  0  0
   39.1957  -22.6667   35.5979 N   0  0  0  0  0  0  0  0  0  0  0  0
   39.0320  -23.9889   35.0800 C   0  0  0  0  0  0  0  0  0  0  0  0
   40.0941  -24.6832   34.9352 O   0  0  0  0  0  0  0  0  0  0  0  0
   37.8363  -24.6149   34.7072 N   0  0  0  0  0  0  0  0  0  0  0  0
   36.9401  -24.1329   34.7814 H   0  0  0  0  0  0  0  0  0  0  0  0
   41.0600  -21.5031   34.6748 C   0  0  0  0  0  0  0  0  0  0  0  0
   42.2132  -22.8534   33.0197 C   0  0  0  0  0  0  0  0  0  0  0  0
   42.2402  -22.0457   34.0456 C   0  0  0  0  0  0  0  0  0  0  0  0
   36.5097  -19.2230   35.5040 C   0  0  0  0  0  0  0  0  0  0  0  0
   35.6610  -18.0351   35.6259 C   0  0  0  0  0  0  0  0  0  0  0  0
   34.3460  -18.0543   35.1574 C   0  0  0  0  0  0  0  0  0  0  0  0
   33.5628  -16.9211   35.2083 C   0  0  0  0  0  0  0  0  0  0  0  0
   34.0222  -15.7213   35.7136 C   0  0  0  0  0  0  0  0  0  0  0  0
   33.1841  -14.6226   35.7382 O   0  0  0  0  0  0  0  0  0  0  0  0
   35.3097  -15.6975   36.1721 C   0  0  0  0  0  0  0  0  0  0  0  0
   36.1144  -16.8359   36.1274 C   0  0  0  0  0  0  0  0  0  0  0  0
   32.2295  -14.6531   35.3971 H   0  0  0  0  0  0  0  0  0  0  0  0
   35.7736  -22.1915   38.8673 C   0  0  0  0  0  0  0  0  0  0  0  0
   34.4095  -22.4888   38.4196 C   0  0  0  0  0  0  0  0  0  0  0  0
   33.6395  -21.5518   37.7815 C   0  0  0  0  0  0  0  0  0  0  0  0
   32.3314  -21.8056   37.4063 C   0  0  0  0  0  0  0  0  0  0  0  0
   31.7651  -23.0385   37.6738 C   0  0  0  0  0  0  0  0  0  0  0  0
   32.5436  -24.0045   38.3240 C   0  0  0  0  0  0  0  0  0  0  0  0
   32.2747  -25.2806   38.6905 C   0  0  0  0  0  0  0  0  0  0  0  0
   33.4099  -25.7718   39.2690 C   0  0  0  0  0  0  0  0  0  0  0  0
   34.3852  -24.8463   39.2820 N   0  0  0  0  0  0  0  0  0  0  0  0
   35.7165  -25.0102   39.8108 C   0  0  0  0  0  0  0  0  0  0  0  0
   33.8552  -23.7350   38.6956 C   0  0  0  0  0  0  0  0  0  0  0  0
   31.0000  -26.0668   38.5590 C   0  0  0  0  0  0  0  0  0  0  0  0
   30.4003  -26.4344   39.5918 O   0  0  0  0  0  0  0  0  0  0  0  0
   30.5671  -26.3257   37.2456 N   0  0  0  0  0  0  0  0  0  0  0  0
   29.3609  -26.7237   37.7863 H   0  0  0  0  0  0  0  0  0  0  0  0
   30.1502  -26.5750   36.0349 C   0  0  0  0  0  0  0  0  0  0  0  0
   30.1906  -25.5651   35.0513 C   0  0  0  0  0  0  0  0  0  0  0  0
   29.7754  -25.7310   33.7826 C   0  0  0  0  0  0  0  0  0  0  0  0
   29.2723  -26.9569   33.4111 C   0  0  0  0  0  0  0  0  0  0  0  0
   29.1998  -27.9758   34.2974 N   0  0  0  0  0  0  0  0  0  0  0  0
   29.6261  -27.8004   35.5695 C   0  0  0  0  0  0  0  0  0  0  0  0
   28.7633  -27.1863   32.0938 N   0  0  0  0  0  0  0  0  0  0  0  0
   27.3362  -27.2728   31.9058 C   0  0  0  0  0  0  0  0  0  0  0  0
   26.8045  -26.6680   30.6592 C   0  0  0  0  0  0  0  0  0  0  0  0
   27.8209  -26.2659   29.6496 C   0  0  0  0  0  0  0  0  0  0  0  0
   29.0594  -27.1561   29.6614 C   0  0  0  0  0  0  0  0  0  0  0  0
   29.6697  -27.3555   30.9928 C   0  0  0  0  0  0  0  0  0  0  0  0
   27.3708  -26.2107   28.3042 N   0  0  0  0  0  0  0  0  0  0  0  0
   27.9341  -25.2038   27.4634 C   0  0  0  0  0  0  0  0  0  0  0  0
   26.6395  -25.2241   26.6758 C   0  0  0  0  0  0  0  0  0  0  0  0
   26.0613  -25.7936   27.9698 C   0  0  0  0  0  0  0  0  0  0  0  0
   37.8235  -25.9785   34.1850 C   0  0  0  0  0  0  0  0  0  0  0  0
   36.5400  -26.6754   34.5653 C   0  0  0  0  0  0  0  0  0  0  0  0
   36.0366  -27.6480   33.7664 C   0  0  0  0  0  0  0  0  0  0  0  0
   34.8088  -28.2641   34.1161 C   0  0  0  0  0  0  0  0  0  0  0  0
   34.1396  -27.8615   35.2712 C   0  0  0  0  0  0  0  0  0  0  0  0
   34.7550  -26.8404   36.0228 C   0  0  0  0  0  0  0  0  0  0  0  0
   35.9056  -26.2593   35.7075 C   0  0  0  0  0  0  0  0  0  0  0  0
 18 19  2  0  0  0
 19 17  1  0  0  0
 17  1  1  0  0  0
  1  2  1  0  0  0
  2  3  1  0  0  0
  3  4  2  0  0  0
  3  5  1  0  0  0
  5  6  1  0  0  0
  6 20  1  0  0  0
 20 21  1  0  0  0
 21 22  2  0  0  0
 22 23  1  0  0  0
 23 24  2  0  0  0
 24 25  1  0  0  0
 24 26  1  0  0  0
 26 27  2  0  0  0
  6  7  1  0  0  0
  7  8  2  0  0  0
  7  9  1  0  0  0
  9 29  1  0  0  0
 29 30  1  0  0  0
 30 31  2  0  0  0
 31 32  1  0  0  0
 32 33  2  0  0  0
 33 34  1  0  0  0
 34 35  1  0  0  0
 35 40  1  0  0  0
 40 41  2  0  0  0
 40 42  1  0  0  0
 42 44  1  0  0  0
 44 45  2  0  0  0
 45 46  1  0  0  0
 46 47  2  0  0  0
 47 50  1  0  0  0
 50 51  1  0  0  0
 51 52  1  0  0  0
 52 53  1  0  0  0
 53 56  1  0  0  0
 56 57  1  0  0  0
 57 58  1  0  0  0
 58 59  1  0  0  0
 53 54  1  0  0  0
 54 55  1  0  0  0
 47 48  1  0  0  0
 48 49  2  0  0  0
 35 36  2  0  0  0
 36 37  1  0  0  0
 37 38  1  0  0  0
 37 39  1  0  0  0
  9 10  1  0  0  0
 10 11  1  0  0  0
 11 12  1  0  0  0
 12 13  1  0  0  0
 13 14  2  0  0  0
 13 15  1  0  0  0
 15 60  1  0  0  0
 60 61  1  0  0  0
 61 62  2  0  0  0
 62 63  1  0  0  0
 63 64  2  0  0  0
 64 65  1  0  0  0
 65 66  2  0  0  0
 12  1  1  0  0  0
 66 61  1  0  0  0
 11  5  1  0  0  0
 27 21  1  0  0  0
 39 30  1  0  0  0
 39 34  2  0  0  0
 49 44  1  0  0  0
 55 50  1  0  0  0
 59 56  1  0  0  0
 25 28  1  0  0  0
 42 43  1  0  0  0
 15 16  1  0  0  0
M  END
> <minimizedAffinity>
-5.24732

> <CNNscore>
0.1701299101

> <CNNaffinity>
6.9965143204

> <CNN_VS>
1.1903163195

> <CNNaffinity_variance>
0.1609589905

$$$$
[H]Oc1c([H])c([H])c(C([H])([H])[C@@]2([H])C(=O)N(C([H])([H])c3c([H])c([H])c([H])c4c(C(=O)N([H])c5c([H])nc(N6C([H])([H])C([H])([H])C([H])(N7C([H])([H])C([H])([H])C7([H])[H])C([H])([H])C6([H])[H])c([H])c5[H])c([H])n(C([H])([H])[H])c34)C([H])([H])[C@]3([H])N(C(=O)N([H])C([H])([H])c4c([H])c([H])c([H])c([H])c4[H])N(C([H])([H])C([H])=C([H])[H])C([H])([H])C(=O)N23)c([H])c1[H]


 66 74  0  0  0  0  0  0  0  0999 V2000
   33.2917  -21.3323   38.6288 N   0  0  0  0  0  0  0  0  0  0  0  0
   32.4670  -21.3396   37.4339 C   0  0  0  0  0  0  0  0  0  0  0  0
   32.6205  -22.7704   36.9461 C   0  0  0  0  0  0  0  0  0  0  0  0
   32.9479  -22.9279   35.7560 O   0  0  0  0  0  0  0  0  0  0  0  0
   32.3877  -23.8206   37.8341 N   0  0  0  0  0  0  0  0  0  0  0  0
   31.9894  -25.1125   37.3527 C   0  0  0  0  0  0  0  0  0  0  0  0
   30.5237  -25.1556   37.7162 C   0  0  0  0  0  0  0  0  0  0  0  0
   29.6935  -25.5937   36.9384 O   0  0  0  0  0  0  0  0  0  0  0  0
   30.1635  -24.6703   38.9888 N   0  0  0  0  0  0  0  0  0  0  0  0
   31.1523  -24.0569   39.9086 C   0  0  0  0  0  0  0  0  0  0  0  0
   32.4266  -23.6294   39.2597 C   0  0  0  0  0  0  0  0  0  0  0  0
   32.9148  -22.3073   39.5786 N   0  0  0  0  0  0  0  0  0  0  0  0
   33.0810  -21.8918   40.9361 C   0  0  0  0  0  0  0  0  0  0  0  0
   33.4593  -20.6866   41.1244 O   0  0  0  0  0  0  0  0  0  0  0  0
   32.8796  -22.6575   42.0911 N   0  0  0  0  0  0  0  0  0  0  0  0
   32.5848  -23.6326   42.0359 H   0  0  0  0  0  0  0  0  0  0  0  0
   34.6416  -21.5388   38.1262 C   0  0  0  0  0  0  0  0  0  0  0  0
   35.6573  -19.4233   37.5051 C   0  0  0  0  0  0  0  0  0  0  0  0
   35.5430  -20.4299   38.3292 C   0  0  0  0  0  0  0  0  0  0  0  0
   32.6986  -26.3065   37.8345 C   0  0  0  0  0  0  0  0  0  0  0  0
   34.0197  -26.6326   37.2917 C   0  0  0  0  0  0  0  0  0  0  0  0
   34.2897  -26.4556   35.9335 C   0  0  0  0  0  0  0  0  0  0  0  0
   35.5081  -26.8221   35.4031 C   0  0  0  0  0  0  0  0  0  0  0  0
   36.5151  -27.3776   36.1669 C   0  0  0  0  0  0  0  0  0  0  0  0
   37.7151  -27.7207   35.5733 O   0  0  0  0  0  0  0  0  0  0  0  0
   36.2546  -27.5541   37.4972 C   0  0  0  0  0  0  0  0  0  0  0  0
   35.0267  -27.1881   38.0484 C   0  0  0  0  0  0  0  0  0  0  0  0
   37.8976  -27.5827   34.5853 H   0  0  0  0  0  0  0  0  0  0  0  0
   28.7967  -24.6869   39.5132 C   0  0  0  0  0  0  0  0  0  0  0  0
   28.2148  -23.3470   39.3873 C   0  0  0  0  0  0  0  0  0  0  0  0
   28.2854  -22.6372   38.2172 C   0  0  0  0  0  0  0  0  0  0  0  0
   27.7891  -21.3497   38.1062 C   0  0  0  0  0  0  0  0  0  0  0  0
   27.1983  -20.7428   39.1993 C   0  0  0  0  0  0  0  0  0  0  0  0
   27.1190  -21.4597   40.3999 C   0  0  0  0  0  0  0  0  0  0  0  0
   26.5879  -21.1426   41.6051 C   0  0  0  0  0  0  0  0  0  0  0  0
   26.7653  -22.2298   42.4120 C   0  0  0  0  0  0  0  0  0  0  0  0
   27.3936  -23.2214   41.7561 N   0  0  0  0  0  0  0  0  0  0  0  0
   27.7460  -24.5140   42.2889 C   0  0  0  0  0  0  0  0  0  0  0  0
   27.6225  -22.7514   40.4967 C   0  0  0  0  0  0  0  0  0  0  0  0
   25.9454  -19.8626   42.0620 C   0  0  0  0  0  0  0  0  0  0  0  0
   24.9468  -19.9144   42.8112 O   0  0  0  0  0  0  0  0  0  0  0  0
   26.5426  -18.6741   41.6033 N   0  0  0  0  0  0  0  0  0  0  0  0
   25.7747  -18.0011   42.5323 H   0  0  0  0  0  0  0  0  0  0  0  0
   27.0833  -17.5619   41.1879 C   0  0  0  0  0  0  0  0  0  0  0  0
   27.2054  -16.4644   42.0651 C   0  0  0  0  0  0  0  0  0  0  0  0
   27.7416  -15.2797   41.7205 C   0  0  0  0  0  0  0  0  0  0  0  0
   28.1976  -15.1147   40.4326 C   0  0  0  0  0  0  0  0  0  0  0  0
   28.1146  -16.1201   39.5319 N   0  0  0  0  0  0  0  0  0  0  0  0
   27.5793  -17.3100   39.8905 C   0  0  0  0  0  0  0  0  0  0  0  0
   28.7292  -13.8645   39.9839 N   0  0  0  0  0  0  0  0  0  0  0  0
   30.0846  -13.5197   40.3356 C   0  0  0  0  0  0  0  0  0  0  0  0
   30.8672  -12.8068   39.2955 C   0  0  0  0  0  0  0  0  0  0  0  0
   30.0932  -12.3233   38.1202 C   0  0  0  0  0  0  0  0  0  0  0  0
   28.6575  -11.9419   38.4663 C   0  0  0  0  0  0  0  0  0  0  0  0
   27.9069  -12.9657   39.2234 C   0  0  0  0  0  0  0  0  0  0  0  0
   30.6512  -11.2208   37.4210 N   0  0  0  0  0  0  0  0  0  0  0  0
   32.0205  -10.9065   37.6745 C   0  0  0  0  0  0  0  0  0  0  0  0
   31.6898   -9.4677   37.3321 C   0  0  0  0  0  0  0  0  0  0  0  0
   30.2674   -9.8877   37.6974 C   0  0  0  0  0  0  0  0  0  0  0  0
   33.0954  -22.0961   43.4218 C   0  0  0  0  0  0  0  0  0  0  0  0
   31.8829  -21.3151   43.8661 C   0  0  0  0  0  0  0  0  0  0  0  0
   32.0269  -20.0496   44.3304 C   0  0  0  0  0  0  0  0  0  0  0  0
   30.8834  -19.3443   44.7825 C   0  0  0  0  0  0  0  0  0  0  0  0
   29.6332  -19.9605   44.7441 C   0  0  0  0  0  0  0  0  0  0  0  0
   29.6040  -21.2780   44.2446 C   0  0  0  0  0  0  0  0  0  0  0  0
   30.6668  -21.9465   43.8151 C   0  0  0  0  0  0  0  0  0  0  0  0
 18 19  2  0  0  0
 19 17  1  0  0  0
 17  1  1  0  0  0
  1  2  1  0  0  0
  2  3  1  0  0  0
  3  4  2  0  0  0
  3  5  1  0  0  0
  5  6  1  0  0  0
  6 20  1  0  0  0
 20 21  1  0  0  0
 21 22  2  0  0  0
 22 23  1  0  0  0
 23 24  2  0  0  0
 24 25  1  0  0  0
 24 26  1  0  0  0
 26 27  2  0  0  0
  6  7  1  0  0  0
  7  8  2  0  0  0
  7  9  1  0  0  0
  9 29  1  0  0  0
 29 30  1  0  0  0
 30 31  2  0  0  0
 31 32  1  0  0  0
 32 33  2  0  0  0
 33 34  1  0  0  0
 34 35  1  0  0  0
 35 40  1  0  0  0
 40 41  2  0  0  0
 40 42  1  0  0  0
 42 44  1  0  0  0
 44 45  2  0  0  0
 45 46  1  0  0  0
 46 47  2  0  0  0
 47 50  1  0  0  0
 50 51  1  0  0  0
 51 52  1  0  0  0
 52 53  1  0  0  0
 53 56  1  0  0  0
 56 57  1  0  0  0
 57 58  1  0  0  0
 58 59  1  0  0  0
 53 54  1  0  0  0
 54 55  1  0  0  0
 47 48  1  0  0  0
 48 49  2  0  0  0
 35 36  2  0  0  0
 36 37  1  0  0  0
 37 38  1  0  0  0
 37 39  1  0  0  0
  9 10  1  0  0  0
 10 11  1  0  0  0
 11 12  1  0  0  0
 12 13  1  0  0  0
 13 14  2  0  0  0
 13 15  1  0  0  0
 15 60  1  0  0  0
 60 61  1  0  0  0
 61 62  2  0  0  0
 62 63  1  0  0  0
 63 64  2  0  0  0
 64 65  1  0  0  0
 65 66  2  0  0  0
 12  1  1  0  0  0
 66 61  1  0  0  0
 11  5  1  0  0  0
 27 21  1  0  0  0
 39 30  1  0  0  0
 39 34  2  0  0  0
 49 44  1  0  0  0
 55 50  1  0  0  0
 59 56  1  0  0  0
 25 28  1  0  0  0
 42 43  1  0  0  0
 15 16  1  0  0  0
M  END
> <minimizedAffinity>
-5.71867

> <CNNscore>
0.1392203122

> <CNNaffinity>
6.4576826096

> <CNN_VS>
0.8990405798

> <CNNaffinity_variance>
0.4427501261

$$$$
[H]Oc1c([H])c([H])c(C([H])([H])[C@@]2([H])C(=O)N(C([H])([H])c3c([H])c([H])c([H])c4c(C(=O)N([H])c5c([H])nc(N6C([H])([H])C([H])([H])C([H])(N7C([H])([H])C([H])([H])C7([H])[H])C([H])([H])C6([H])[H])c([H])c5[H])c([H])n(C([H])([H])[H])c34)C([H])([H])[C@]3([H])N(C(=O)N([H])C([H])([H])c4c([H])c([H])c([H])c([H])c4[H])N(C([H])([H])C([H])=C([H])[H])C([H])([H])C(=O)N23)c([H])c1[H]


 66 74  0  0  0  0  0  0  0  0999 V2000
   33.4241  -20.6039   35.5562 N   0  0  0  0  0  0  0  0  0  0  0  0
   33.5772  -20.2113   34.1668 C   0  0  0  0  0  0  0  0  0  0  0  0
   34.1422  -18.8062   34.2902 C   0  0  0  0  0  0  0  0  0  0  0  0
   33.5649  -17.9086   33.6503 O   0  0  0  0  0  0  0  0  0  0  0  0
   35.2614  -18.5912   35.0942 N   0  0  0  0  0  0  0  0  0  0  0  0
   36.1394  -17.4833   34.8468 C   0  0  0  0  0  0  0  0  0  0  0  0
   37.3441  -18.1561   34.2318 C   0  0  0  0  0  0  0  0  0  0  0  0
   37.9116  -17.6741   33.2665 O   0  0  0  0  0  0  0  0  0  0  0  0
   37.7794  -19.3585   34.8232 N   0  0  0  0  0  0  0  0  0  0  0  0
   37.0464  -19.9979   35.9429 C   0  0  0  0  0  0  0  0  0  0  0  0
   35.6439  -19.5207   36.1239 C   0  0  0  0  0  0  0  0  0  0  0  0
   34.6240  -20.5295   36.2974 N   0  0  0  0  0  0  0  0  0  0  0  0
   34.7568  -21.5466   37.2930 C   0  0  0  0  0  0  0  0  0  0  0  0
   33.8371  -22.4317   37.3344 O   0  0  0  0  0  0  0  0  0  0  0  0
   35.7822  -21.6850   38.2365 N   0  0  0  0  0  0  0  0  0  0  0  0
   36.5540  -21.0194   38.2821 H   0  0  0  0  0  0  0  0  0  0  0  0
   32.3997  -19.7045   36.0655 C   0  0  0  0  0  0  0  0  0  0  0  0
   30.3126  -19.1653   34.9493 C   0  0  0  0  0  0  0  0  0  0  0  0
   31.0573  -19.9990   35.6246 C   0  0  0  0  0  0  0  0  0  0  0  0
   36.5234  -16.6098   35.9650 C   0  0  0  0  0  0  0  0  0  0  0  0
   35.7485  -15.3962   36.2353 C   0  0  0  0  0  0  0  0  0  0  0  0
   34.3619  -15.3916   36.0731 C   0  0  0  0  0  0  0  0  0  0  0  0
   33.6338  -14.2364   36.2613 C   0  0  0  0  0  0  0  0  0  0  0  0
   34.2197  -13.0366   36.6126 C   0  0  0  0  0  0  0  0  0  0  0  0
   33.4315  -11.9151   36.7886 O   0  0  0  0  0  0  0  0  0  0  0  0
   35.5774  -13.0361   36.7711 C   0  0  0  0  0  0  0  0  0  0  0  0
   36.3277  -14.1970   36.5842 C   0  0  0  0  0  0  0  0  0  0  0  0
   32.4243  -11.9284   36.6704 H   0  0  0  0  0  0  0  0  0  0  0  0
   38.9569  -20.1075   34.3808 C   0  0  0  0  0  0  0  0  0  0  0  0
   39.9888  -20.0431   35.4204 C   0  0  0  0  0  0  0  0  0  0  0  0
   40.5907  -18.8617   35.7669 C   0  0  0  0  0  0  0  0  0  0  0  0
   41.6054  -18.8003   36.7065 C   0  0  0  0  0  0  0  0  0  0  0  0
   42.0394  -19.9569   37.3278 C   0  0  0  0  0  0  0  0  0  0  0  0
   41.4301  -21.1700   36.9827 C   0  0  0  0  0  0  0  0  0  0  0  0
   41.6236  -22.4343   37.4291 C   0  0  0  0  0  0  0  0  0  0  0  0
   40.7322  -23.2272   36.7647 C   0  0  0  0  0  0  0  0  0  0  0  0
   39.9848  -22.5049   35.9117 N   0  0  0  0  0  0  0  0  0  0  0  0
   38.9446  -23.0048   35.0475 C   0  0  0  0  0  0  0  0  0  0  0  0
   40.4131  -21.2163   36.0369 C   0  0  0  0  0  0  0  0  0  0  0  0
   42.6203  -22.9563   38.4261 C   0  0  0  0  0  0  0  0  0  0  0  0
   43.8260  -23.0245   38.1053 O   0  0  0  0  0  0  0  0  0  0  0  0
   42.1022  -23.3288   39.6800 N   0  0  0  0  0  0  0  0  0  0  0  0
   43.4045  -23.3821   40.1346 H   0  0  0  0  0  0  0  0  0  0  0  0
   41.6396  -23.6789   40.8484 C   0  0  0  0  0  0  0  0  0  0  0  0
   41.8710  -22.8616   41.9742 C   0  0  0  0  0  0  0  0  0  0  0  0
   41.4387  -23.1479   43.2155 C   0  0  0  0  0  0  0  0  0  0  0  0
   40.7302  -24.3111   43.4124 C   0  0  0  0  0  0  0  0  0  0  0  0
   40.4683  -25.1480   42.3828 N   0  0  0  0  0  0  0  0  0  0  0  0
   40.9022  -24.8476   41.1369 C   0  0  0  0  0  0  0  0  0  0  0  0
   40.2876  -24.7036   44.7152 N   0  0  0  0  0  0  0  0  0  0  0  0
   39.4283  -23.8123   45.4546 C   0  0  0  0  0  0  0  0  0  0  0  0
   38.3601  -24.4550   46.2600 C   0  0  0  0  0  0  0  0  0  0  0  0
   38.4549  -25.9334   46.3997 C   0  0  0  0  0  0  0  0  0  0  0  0
   39.8925  -26.4429   46.3955 C   0  0  0  0  0  0  0  0  0  0  0  0
   40.7235  -25.9516   45.2762 C   0  0  0  0  0  0  0  0  0  0  0  0
   37.8282  -26.4895   47.5459 N   0  0  0  0  0  0  0  0  0  0  0  0
   37.5617  -27.8920   47.5339 C   0  0  0  0  0  0  0  0  0  0  0  0
   36.3962  -27.6161   48.4624 C   0  0  0  0  0  0  0  0  0  0  0  0
   36.4804  -26.2101   47.8714 C   0  0  0  0  0  0  0  0  0  0  0  0
   35.7826  -22.7801   39.2026 C   0  0  0  0  0  0  0  0  0  0  0  0
   36.4117  -22.3362   40.5006 C   0  0  0  0  0  0  0  0  0  0  0  0
   35.6254  -21.9716   41.5429 C   0  0  0  0  0  0  0  0  0  0  0  0
   36.2315  -21.5178   42.7412 C   0  0  0  0  0  0  0  0  0  0  0  0
   37.6216  -21.4526   42.8292 C   0  0  0  0  0  0  0  0  0  0  0  0
   38.3370  -21.8539   41.6832 C   0  0  0  0  0  0  0  0  0  0  0  0
   37.7807  -22.2840   40.5578 C   0  0  0  0  0  0  0  0  0  0  0  0
 18 19  2  0  0  0
 19 17  1  0  0  0
 17  1  1  0  0  0
  1  2  1  0  0  0
  2  3  1  0  0  0
  3  4  2  0  0  0
  3  5  1  0  0  0
  5  6  1  0  0  0
  6 20  1  0  0  0
 20 21  1  0  0  0
 21 22  2  0  0  0
 22 23  1  0  0  0
 23 24  2  0  0  0
 24 25  1  0  0  0
 24 26  1  0  0  0
 26 27  2  0  0  0
  6  7  1  0  0  0
  7  8  2  0  0  0
  7  9  1  0  0  0
  9 29  1  0  0  0
 29 30  1  0  0  0
 30 31  2  0  0  0
 31 32  1  0  0  0
 32 33  2  0  0  0
 33 34  1  0  0  0
 34 35  1  0  0  0
 35 40  1  0  0  0
 40 41  2  0  0  0
 40 42  1  0  0  0
 42 44  1  0  0  0
 44 45  2  0  0  0
 45 46  1  0  0  0
 46 47  2  0  0  0
 47 50  1  0  0  0
 50 51  1  0  0  0
 51 52  1  0  0  0
 52 53  1  0  0  0
 53 56  1  0  0  0
 56 57  1  0  0  0
 57 58  1  0  0  0
 58 59  1  0  0  0
 53 54  1  0  0  0
 54 55  1  0  0  0
 47 48  1  0  0  0
 48 49  2  0  0  0
 35 36  2  0  0  0
 36 37  1  0  0  0
 37 38  1  0  0  0
 37 39  1  0  0  0
  9 10  1  0  0  0
 10 11  1  0  0  0
 11 12  1  0  0  0
 12 13  1  0  0  0
 13 14  2  0  0  0
 13 15  1  0  0  0
 15 60  1  0  0  0
 60 61  1  0  0  0
 61 62  2  0  0  0
 62 63  1  0  0  0
 63 64  2  0  0  0
 64 65  1  0  0  0
 65 66  2  0  0  0
 12  1  1  0  0  0
 66 61  1  0  0  0
 11  5  1  0  0  0
 27 21  1  0  0  0
 39 30  1  0  0  0
 39 34  2  0  0  0
 49 44  1  0  0  0
 55 50  1  0  0  0
 59 56  1  0  0  0
 25 28  1  0  0  0
 42 43  1  0  0  0
 15 16  1  0  0  0
M  END
> <minimizedAffinity>
-7.05338

> <CNNscore>
0.1301145703

> <CNNaffinity>
7.0889101028

> <CNN_VS>
0.9223704934

> <CNNaffinity_variance>
0.1505978703

$$$$
[H]Oc1c([H])c([H])c(C([H])([H])[C@@]2([H])C(=O)N(C([H])([H])c3c([H])c([H])c([H])c4c(C(=O)N([H])c5c([H])nc(N6C([H])([H])C([H])([H])C([H])(N7C([H])([H])C([H])([H])C7([H])[H])C([H])([H])C6([H])[H])c([H])c5[H])c([H])n(C([H])([H])[H])c34)C([H])([H])[C@]3([H])N(C(=O)N([H])C([H])([H])c4c([H])c([H])c([H])c([H])c4[H])N(C([H])([H])C([H])=C([H])[H])C([H])([H])C(=O)N23)c([H])c1[H]


 66 74  0  0  0  0  0  0  0  0999 V2000
   33.8001  -20.7813   38.1606 N   0  0  0  0  0  0  0  0  0  0  0  0
   32.6651  -21.3431   37.4506 C   0  0  0  0  0  0  0  0  0  0  0  0
   33.2103  -22.6809   36.9800 C   0  0  0  0  0  0  0  0  0  0  0  0
   33.0825  -22.9478   35.7714 O   0  0  0  0  0  0  0  0  0  0  0  0
   33.8125  -23.5336   37.9052 N   0  0  0  0  0  0  0  0  0  0  0  0
   33.8503  -24.9503   37.6795 C   0  0  0  0  0  0  0  0  0  0  0  0
   32.8124  -25.4606   38.6514 C   0  0  0  0  0  0  0  0  0  0  0  0
   32.0183  -26.3276   38.3288 O   0  0  0  0  0  0  0  0  0  0  0  0
   32.8058  -24.8923   39.9406 N   0  0  0  0  0  0  0  0  0  0  0  0
   33.7100  -23.7782   40.3166 C   0  0  0  0  0  0  0  0  0  0  0  0
   34.3169  -23.0508   39.1633 C   0  0  0  0  0  0  0  0  0  0  0  0
   34.2766  -21.6069   39.2028 N   0  0  0  0  0  0  0  0  0  0  0  0
   34.7629  -20.8879   40.3384 C   0  0  0  0  0  0  0  0  0  0  0  0
   34.6319  -19.6178   40.3118 O   0  0  0  0  0  0  0  0  0  0  0  0
   35.3733  -21.4162   41.4825 N   0  0  0  0  0  0  0  0  0  0  0  0
   35.5263  -22.4195   41.5863 H   0  0  0  0  0  0  0  0  0  0  0  0
   34.7957  -20.5687   37.1208 C   0  0  0  0  0  0  0  0  0  0  0  0
   36.0923  -18.5241   37.2957 C   0  0  0  0  0  0  0  0  0  0  0  0
   35.0729  -19.1852   36.8171 C   0  0  0  0  0  0  0  0  0  0  0  0
   35.1255  -25.6659   37.8293 C   0  0  0  0  0  0  0  0  0  0  0  0
   36.1305  -25.5855   36.7664 C   0  0  0  0  0  0  0  0  0  0  0  0
   37.0644  -24.5479   36.7530 C   0  0  0  0  0  0  0  0  0  0  0  0
   37.9703  -24.4279   35.7211 C   0  0  0  0  0  0  0  0  0  0  0  0
   38.0075  -25.3076   34.6577 C   0  0  0  0  0  0  0  0  0  0  0  0
   38.9435  -25.1322   33.6561 O   0  0  0  0  0  0  0  0  0  0  0  0
   37.0939  -26.3243   34.6659 C   0  0  0  0  0  0  0  0  0  0  0  0
   36.1711  -26.4590   35.7030 C   0  0  0  0  0  0  0  0  0  0  0  0
   39.6181  -24.3749   33.6622 H   0  0  0  0  0  0  0  0  0  0  0  0
   31.9000  -25.3084   41.0127 C   0  0  0  0  0  0  0  0  0  0  0  0
   30.7378  -24.4149   41.0371 C   0  0  0  0  0  0  0  0  0  0  0  0
   29.9044  -24.2862   39.9568 C   0  0  0  0  0  0  0  0  0  0  0  0
   28.8384  -23.4030   39.9506 C   0  0  0  0  0  0  0  0  0  0  0  0
   28.5887  -22.6172   41.0608 C   0  0  0  0  0  0  0  0  0  0  0  0
   29.4331  -22.7418   42.1713 C   0  0  0  0  0  0  0  0  0  0  0  0
   29.4242  -22.1347   43.3823 C   0  0  0  0  0  0  0  0  0  0  0  0
   30.4675  -22.6566   44.0922 C   0  0  0  0  0  0  0  0  0  0  0  0
   31.1359  -23.5710   43.3675 N   0  0  0  0  0  0  0  0  0  0  0  0
   32.2883  -24.3264   43.7919 C   0  0  0  0  0  0  0  0  0  0  0  0
   30.5000  -23.6321   42.1627 C   0  0  0  0  0  0  0  0  0  0  0  0
   28.5100  -21.0647   43.9109 C   0  0  0  0  0  0  0  0  0  0  0  0
   27.7490  -21.3292   44.8659 O   0  0  0  0  0  0  0  0  0  0  0  0
   28.5931  -19.8123   43.2752 N   0  0  0  0  0  0  0  0  0  0  0  0
   27.8498  -19.3006   44.3199 H   0  0  0  0  0  0  0  0  0  0  0  0
   28.6568  -18.6442   42.6980 C   0  0  0  0  0  0  0  0  0  0  0  0
   29.6157  -17.6993   43.1180 C   0  0  0  0  0  0  0  0  0  0  0  0
   29.7476  -16.4709   42.5857 C   0  0  0  0  0  0  0  0  0  0  0  0
   28.8951  -16.0997   41.5711 C   0  0  0  0  0  0  0  0  0  0  0  0
   27.9478  -16.9496   41.1135 N   0  0  0  0  0  0  0  0  0  0  0  0
   27.8278  -18.1853   41.6514 C   0  0  0  0  0  0  0  0  0  0  0  0
   28.9442  -14.7901   40.9971 N   0  0  0  0  0  0  0  0  0  0  0  0
   28.2211  -14.5398   39.7748 C   0  0  0  0  0  0  0  0  0  0  0  0
   27.5713  -13.2103   39.6618 C   0  0  0  0  0  0  0  0  0  0  0  0
   27.9431  -12.2168   40.7053 C   0  0  0  0  0  0  0  0  0  0  0  0
   29.3726  -12.3867   41.2096 C   0  0  0  0  0  0  0  0  0  0  0  0
   29.7280  -13.7612   41.6212 C   0  0  0  0  0  0  0  0  0  0  0  0
   27.7981  -10.8519   40.3421 N   0  0  0  0  0  0  0  0  0  0  0  0
   26.9034  -10.0564   41.1197 C   0  0  0  0  0  0  0  0  0  0  0  0
   26.6842   -9.2058   39.8847 C   0  0  0  0  0  0  0  0  0  0  0  0
   27.1493  -10.4603   39.1478 C   0  0  0  0  0  0  0  0  0  0  0  0
   35.8276  -20.5523   42.5687 C   0  0  0  0  0  0  0  0  0  0  0  0
   34.6704  -20.1778   43.4621 C   0  0  0  0  0  0  0  0  0  0  0  0
   34.1327  -21.1024   44.2949 C   0  0  0  0  0  0  0  0  0  0  0  0
   33.0198  -20.7466   45.0975 C   0  0  0  0  0  0  0  0  0  0  0  0
   32.4964  -19.4566   45.0179 C   0  0  0  0  0  0  0  0  0  0  0  0
   33.1341  -18.5811   44.1162 C   0  0  0  0  0  0  0  0  0  0  0  0
   34.1785  -18.9017   43.3630 C   0  0  0  0  0  0  0  0  0  0  0  0
 18 19  2  0  0  0
 19 17  1  0  0  0
 17  1  1  0  0  0
  1  2  1  0  0  0
  2  3  1  0  0  0
  3  4  2  0  0  0
  3  5  1  0  0  0
  5  6  1  0  0  0
  6 20  1  0  0  0
 20 21  1  0  0  0
 21 22  2  0  0  0
 22 23  1  0  0  0
 23 24  2  0  0  0
 24 25  1  0  0  0
 24 26  1  0  0  0
 26 27  2  0  0  0
  6  7  1  0  0  0
  7  8  2  0  0  0
  7  9  1  0  0  0
  9 29  1  0  0  0
 29 30  1  0  0  0
 30 31  2  0  0  0
 31 32  1  0  0  0
 32 33  2  0  0  0
 33 34  1  0  0  0
 34 35  1  0  0  0
 35 40  1  0  0  0
 40 41  2  0  0  0
 40 42  1  0  0  0
 42 44  1  0  0  0
 44 45  2  0  0  0
 45 46  1  0  0  0
 46 47  2  0  0  0
 47 50  1  0  0  0
 50 51  1  0  0  0
 51 52  1  0  0  0
 52 53  1  0  0  0
 53 56  1  0  0  0
 56 57  1  0  0  0
 57 58  1  0  0  0
 58 59  1  0  0  0
 53 54  1  0  0  0
 54 55  1  0  0  0
 47 48  1  0  0  0
 48 49  2  0  0  0
 35 36  2  0  0  0
 36 37  1  0  0  0
 37 38  1  0  0  0
 37 39  1  0  0  0
  9 10  1  0  0  0
 10 11  1  0  0  0
 11 12  1  0  0  0
 12 13  1  0  0  0
 13 14  2  0  0  0
 13 15  1  0  0  0
 15 60  1  0  0  0
 60 61  1  0  0  0
 61 62  2  0  0  0
 62 63  1  0  0  0
 63 64  2  0  0  0
 64 65  1  0  0  0
 65 66  2  0  0  0
 12  1  1  0  0  0
 66 61  1  0  0  0
 11  5  1  0  0  0
 27 21  1  0  0  0
 39 30  1  0  0  0
 39 34  2  0  0  0
 49 44  1  0  0  0
 55 50  1  0  0  0
 59 56  1  0  0  0
 25 28  1  0  0  0
 42 43  1  0  0  0
 15 16  1  0  0  0
M  END
> <minimizedAffinity>
-5.78982

> <CNNscore>
0.1190588102

> <CNNaffinity>
6.4000806808

> <CNN_VS>
0.7619860172

> <CNNaffinity_variance>
0.7670056224

$$$$
[H]c1nc(Oc2c([H])c([H])c(C(=O)N([H])C([H])([H])C([H])([H])N3C([H])([H])C([H])([H])C([H])([H])C3([H])[H])c([H])c2[H])c(N([H])S(=O)(=O)c2c([H])c([H])c(Cl)c(Cl)c2[H])c([H])c1Cl


 38 41  0  0  0  0  0  0  0  0999 V2000
   34.5737  -11.3696   37.2631 C   0  0  0  0  0  0  0  0  0  0  0  0
   35.5328  -11.0903   36.3621 N   0  0  0  0  0  0  0  0  0  0  0  0
   35.5267   -9.9517   35.6630 C   0  0  0  0  0  0  0  0  0  0  0  0
   34.5240   -9.0558   35.8715 C   0  0  0  0  0  0  0  0  0  0  0  0
   34.5249   -7.5633   34.9478 Cl  0  0  0  0  0  0  0  0  0  0  0  0
   33.5137   -9.3267   36.8067 C   0  0  0  0  0  0  0  0  0  0  0  0
   33.5375  -10.5032   37.5147 C   0  0  0  0  0  0  0  0  0  0  0  0
   32.5785  -10.8534   38.4927 N   0  0  0  0  0  0  0  0  0  0  0  0
   32.6665  -10.4982   39.4902 H   0  0  0  0  0  0  0  0  0  0  0  0
   31.2572  -11.8614   38.0708 S   0  0  0  0  0  0  0  0  0  0  0  0
   31.2927  -12.0971   36.5663 O   0  0  0  0  0  0  0  0  0  0  0  0
   31.4646  -13.1986   38.7783 O   0  0  0  0  0  0  0  0  0  0  0  0
   29.7013  -11.2558   38.4992 C   0  0  0  0  0  0  0  0  0  0  0  0
   28.5921  -12.1058   38.5672 C   0  0  0  0  0  0  0  0  0  0  0  0
   27.3809  -11.5763   38.9084 C   0  0  0  0  0  0  0  0  0  0  0  0
   27.2432  -10.2261   39.1833 C   0  0  0  0  0  0  0  0  0  0  0  0
   25.6883   -9.5646   39.6164 Cl  0  0  0  0  0  0  0  0  0  0  0  0
   28.3416   -9.3789   39.1168 C   0  0  0  0  0  0  0  0  0  0  0  0
   28.1242   -7.6851   39.4708 Cl  0  0  0  0  0  0  0  0  0  0  0  0
   29.5747   -9.9155   38.7702 C   0  0  0  0  0  0  0  0  0  0  0  0
   34.6508  -12.5830   37.9548 O   0  0  0  0  0  0  0  0  0  0  0  0
   34.9015  -16.2547   35.9400 C   0  0  0  0  0  0  0  0  0  0  0  0
   33.8519  -15.3616   35.6770 C   0  0  0  0  0  0  0  0  0  0  0  0
   33.7784  -14.1537   36.3475 C   0  0  0  0  0  0  0  0  0  0  0  0
   34.7183  -13.7904   37.2823 C   0  0  0  0  0  0  0  0  0  0  0  0
   35.7349  -14.6816   37.5218 C   0  0  0  0  0  0  0  0  0  0  0  0
   35.8315  -15.8964   36.8648 C   0  0  0  0  0  0  0  0  0  0  0  0
   36.0871  -17.8934   34.7101 O   0  0  0  0  0  0  0  0  0  0  0  0
   34.9680  -17.5137   35.2142 C   0  0  0  0  0  0  0  0  0  0  0  0
   33.8503  -18.3528   35.0324 N   0  0  0  0  0  0  0  0  0  0  0  0
   32.9474  -18.0202   35.4519 H   0  0  0  0  0  0  0  0  0  0  0  0
   33.8259  -19.6052   34.3320 C   0  0  0  0  0  0  0  0  0  0  0  0
   32.4063  -19.9533   33.9774 C   0  0  0  0  0  0  0  0  0  0  0  0
   31.5754  -19.8999   35.1454 N   0  0  0  0  0  0  0  0  0  0  0  0
   31.8073  -20.9125   36.1177 C   0  0  0  0  0  0  0  0  0  0  0  0
   30.6473  -21.8910   36.0387 C   0  0  0  0  0  0  0  0  0  0  0  0
   29.5363  -21.0335   35.5033 C   0  0  0  0  0  0  0  0  0  0  0  0
   30.1727  -19.8136   34.8902 C   0  0  0  0  0  0  0  0  0  0  0  0
 28 29  2  0  0  0
 29 30  1  0  0  0
 30 32  1  0  0  0
 32 33  1  0  0  0
 33 34  1  0  0  0
 34 35  1  0  0  0
 35 36  1  0  0  0
 36 37  1  0  0  0
 37 38  1  0  0  0
 29 22  1  0  0  0
 22 23  2  0  0  0
 23 24  1  0  0  0
 24 25  2  0  0  0
 25 21  1  0  0  0
 21  1  1  0  0  0
  1  2  2  0  0  0
  2  3  1  0  0  0
  3  4  2  0  0  0
  4  5  1  0  0  0
  4  6  1  0  0  0
  6  7  2  0  0  0
  7  8  1  0  0  0
  8 10  1  0  0  0
 10 11  2  0  0  0
 10 12  2  0  0  0
 10 13  1  0  0  0
 13 14  2  0  0  0
 14 15  1  0  0  0
 15 16  2  0  0  0
 16 17  1  0  0  0
 16 18  1  0  0  0
 18 19  1  0  0  0
 18 20  2  0  0  0
 25 26  1  0  0  0
 26 27  2  0  0  0
 38 34  1  0  0  0
 27 22  1  0  0  0
  7  1  1  0  0  0
 20 13  1  0  0  0
 30 31  1  0  0  0
  8  9  1  0  0  0
M  END
> <minimizedAffinity>
-7.91745

> <CNNscore>
0.5762302876

> <CNNaffinity>
7.7390570641

> <CNN_VS>
4.4594788551

> <CNNaffinity_variance>
0.2010655701

$$$$
[H]c1nc(Oc2c([H])c([H])c(C(=O)N([H])C([H])([H])C([H])([H])N3C([H])([H])C([H])([H])C([H])([H])C3([H])[H])c([H])c2[H])c(N([H])S(=O)(=O)c2c([H])c([H])c(Cl)c(Cl)c2[H])c([H])c1Cl


 38 41  0  0  0  0  0  0  0  0999 V2000
   34.5525  -15.3440   35.9929 C   0  0  0  0  0  0  0  0  0  0  0  0
   35.7871  -15.8655   35.8768 N   0  0  0  0  0  0  0  0  0  0  0  0
   36.8487  -15.2849   36.4435 C   0  0  0  0  0  0  0  0  0  0  0  0
   36.6714  -14.1386   37.1547 C   0  0  0  0  0  0  0  0  0  0  0  0
   38.0724  -13.3836   37.8948 Cl  0  0  0  0  0  0  0  0  0  0  0  0
   35.3924  -13.5774   37.2888 C   0  0  0  0  0  0  0  0  0  0  0  0
   34.3141  -14.1891   36.6981 C   0  0  0  0  0  0  0  0  0  0  0  0
   32.9866  -13.7126   36.7969 N   0  0  0  0  0  0  0  0  0  0  0  0
   32.2257  -14.0912   36.1594 H   0  0  0  0  0  0  0  0  0  0  0  0
   32.5944  -12.5113   37.9558 S   0  0  0  0  0  0  0  0  0  0  0  0
   33.0910  -12.9769   39.3186 O   0  0  0  0  0  0  0  0  0  0  0  0
   33.3529  -11.2441   37.5680 O   0  0  0  0  0  0  0  0  0  0  0  0
   30.9192  -12.1253   38.0798 C   0  0  0  0  0  0  0  0  0  0  0  0
   30.3622  -11.0873   37.3249 C   0  0  0  0  0  0  0  0  0  0  0  0
   29.0306  -10.8194   37.4615 C   0  0  0  0  0  0  0  0  0  0  0  0
   28.2389  -11.5547   38.3276 C   0  0  0  0  0  0  0  0  0  0  0  0
   26.5392  -11.1988   38.4920 Cl  0  0  0  0  0  0  0  0  0  0  0  0
   28.7878  -12.5857   39.0790 C   0  0  0  0  0  0  0  0  0  0  0  0
   27.7552  -13.4868   40.1575 Cl  0  0  0  0  0  0  0  0  0  0  0  0
   30.1421  -12.8601   38.9413 C   0  0  0  0  0  0  0  0  0  0  0  0
   33.4925  -16.0115   35.3704 O   0  0  0  0  0  0  0  0  0  0  0  0
   33.0426  -20.1764   35.6057 C   0  0  0  0  0  0  0  0  0  0  0  0
   34.1295  -19.5358   36.2194 C   0  0  0  0  0  0  0  0  0  0  0  0
   34.2687  -18.1619   36.1351 C   0  0  0  0  0  0  0  0  0  0  0  0
   33.3593  -17.3861   35.4567 C   0  0  0  0  0  0  0  0  0  0  0  0
   32.3051  -18.0366   34.8646 C   0  0  0  0  0  0  0  0  0  0  0  0
   32.1428  -19.4098   34.9339 C   0  0  0  0  0  0  0  0  0  0  0  0
   33.6411  -22.2601   36.5563 O   0  0  0  0  0  0  0  0  0  0  0  0
   32.9073  -21.6204   35.7176 C   0  0  0  0  0  0  0  0  0  0  0  0
   31.9981  -22.3669   34.9414 N   0  0  0  0  0  0  0  0  0  0  0  0
   31.4113  -21.8222   34.2627 H   0  0  0  0  0  0  0  0  0  0  0  0
   31.8011  -23.7878   34.9856 C   0  0  0  0  0  0  0  0  0  0  0  0
   30.6885  -24.1097   35.9450 C   0  0  0  0  0  0  0  0  0  0  0  0
   29.4167  -23.9596   35.2989 N   0  0  0  0  0  0  0  0  0  0  0  0
   28.6419  -22.8389   35.7088 C   0  0  0  0  0  0  0  0  0  0  0  0
   27.5010  -23.3648   36.5639 C   0  0  0  0  0  0  0  0  0  0  0  0
   27.3280  -24.7647   36.0474 C   0  0  0  0  0  0  0  0  0  0  0  0
   28.5895  -25.1240   35.3067 C   0  0  0  0  0  0  0  0  0  0  0  0
 28 29  2  0  0  0
 29 30  1  0  0  0
 30 32  1  0  0  0
 32 33  1  0  0  0
 33 34  1  0  0  0
 34 35  1  0  0  0
 35 36  1  0  0  0
 36 37  1  0  0  0
 37 38  1  0  0  0
 29 22  1  0  0  0
 22 23  2  0  0  0
 23 24  1  0  0  0
 24 25  2  0  0  0
 25 21  1  0  0  0
 21  1  1  0  0  0
  1  2  2  0  0  0
  2  3  1  0  0  0
  3  4  2  0  0  0
  4  5  1  0  0  0
  4  6  1  0  0  0
  6  7  2  0  0  0
  7  8  1  0  0  0
  8 10  1  0  0  0
 10 11  2  0  0  0
 10 12  2  0  0  0
 10 13  1  0  0  0
 13 14  2  0  0  0
 14 15  1  0  0  0
 15 16  2  0  0  0
 16 17  1  0  0  0
 16 18  1  0  0  0
 18 19  1  0  0  0
 18 20  2  0  0  0
 25 26  1  0  0  0
 26 27  2  0  0  0
 38 34  1  0  0  0
 27 22  1  0  0  0
  7  1  1  0  0  0
 20 13  1  0  0  0
 30 31  1  0  0  0
  8  9  1  0  0  0
M  END
> <minimizedAffinity>
-8.23949

> <CNNscore>
0.4417860210

> <CNNaffinity>
6.6009531021

> <CNN_VS>
2.9162087440

> <CNNaffinity_variance>
0.1596566886

$$$$
[H]c1nc(Oc2c([H])c([H])c(C(=O)N([H])C([H])([H])C([H])([H])N3C([H])([H])C([H])([H])C([H])([H])C3([H])[H])c([H])c2[H])c(N([H])S(=O)(=O)c2c([H])c([H])c(Cl)c(Cl)c2[H])c([H])c1Cl


 38 41  0  0  0  0  0  0  0  0999 V2000
   34.4713  -11.7877   37.2586 C   0  0  0  0  0  0  0  0  0  0  0  0
   35.4720  -11.5884   36.3818 N   0  0  0  0  0  0  0  0  0  0  0  0
   35.6540  -10.4077   35.7834 C   0  0  0  0  0  0  0  0  0  0  0  0
   34.8040   -9.3850   36.0715 C   0  0  0  0  0  0  0  0  0  0  0  0
   35.0515   -7.8382   35.2798 Cl  0  0  0  0  0  0  0  0  0  0  0  0
   33.7537   -9.5708   36.9832 C   0  0  0  0  0  0  0  0  0  0  0  0
   33.5831  -10.7923   37.5871 C   0  0  0  0  0  0  0  0  0  0  0  0
   32.5704  -11.0680   38.5344 N   0  0  0  0  0  0  0  0  0  0  0  0
   32.6237  -10.6679   39.5172 H   0  0  0  0  0  0  0  0  0  0  0  0
   31.2396  -12.0574   38.0986 S   0  0  0  0  0  0  0  0  0  0  0  0
   31.3160  -12.3355   36.6028 O   0  0  0  0  0  0  0  0  0  0  0  0
   31.3940  -13.3788   38.8480 O   0  0  0  0  0  0  0  0  0  0  0  0
   29.6858  -11.4054   38.4614 C   0  0  0  0  0  0  0  0  0  0  0  0
   28.5358  -11.8936   37.8317 C   0  0  0  0  0  0  0  0  0  0  0  0
   27.3290  -11.3414   38.1518 C   0  0  0  0  0  0  0  0  0  0  0  0
   27.2352  -10.3180   39.0800 C   0  0  0  0  0  0  0  0  0  0  0  0
   25.6859   -9.6218   39.4770 Cl  0  0  0  0  0  0  0  0  0  0  0  0
   28.3743   -9.8303   39.7072 C   0  0  0  0  0  0  0  0  0  0  0  0
   28.2114   -8.5408   40.8700 Cl  0  0  0  0  0  0  0  0  0  0  0  0
   29.6028  -10.3909   39.3832 C   0  0  0  0  0  0  0  0  0  0  0  0
   34.3476  -13.0526   37.8429 O   0  0  0  0  0  0  0  0  0  0  0  0
   35.8348  -16.4846   35.9420 C   0  0  0  0  0  0  0  0  0  0  0  0
   36.6065  -15.7986   36.8919 C   0  0  0  0  0  0  0  0  0  0  0  0
   36.1067  -14.6675   37.5123 C   0  0  0  0  0  0  0  0  0  0  0  0
   34.8533  -14.1824   37.2244 C   0  0  0  0  0  0  0  0  0  0  0  0
   34.1184  -14.8711   36.2913 C   0  0  0  0  0  0  0  0  0  0  0  0
   34.5951  -16.0051   35.6561 C   0  0  0  0  0  0  0  0  0  0  0  0
   35.5686  -18.5836   34.8804 O   0  0  0  0  0  0  0  0  0  0  0  0
   36.3736  -17.6795   35.3111 C   0  0  0  0  0  0  0  0  0  0  0  0
   37.7555  -17.9009   35.1446 N   0  0  0  0  0  0  0  0  0  0  0  0
   38.3926  -17.1490   35.5059 H   0  0  0  0  0  0  0  0  0  0  0  0
   38.3712  -19.0465   34.5378 C   0  0  0  0  0  0  0  0  0  0  0  0
   38.5952  -20.1063   35.5812 C   0  0  0  0  0  0  0  0  0  0  0  0
   39.9997  -20.3281   35.7702 N   0  0  0  0  0  0  0  0  0  0  0  0
   40.5235  -19.9404   37.0351 C   0  0  0  0  0  0  0  0  0  0  0  0
   41.3358  -18.6741   36.8205 C   0  0  0  0  0  0  0  0  0  0  0  0
   41.7544  -18.7977   35.3833 C   0  0  0  0  0  0  0  0  0  0  0  0
   40.8414  -19.8084   34.7399 C   0  0  0  0  0  0  0  0  0  0  0  0
 28 29  2  0  0  0
 29 30  1  0  0  0
 30 32  1  0  0  0
 32 33  1  0  0  0
 33 34  1  0  0  0
 34 35  1  0  0  0
 35 36  1  0  0  0
 36 37  1  0  0  0
 37 38  1  0  0  0
 29 22  1  0  0  0
 22 23  2  0  0  0
 23 24  1  0  0  0
 24 25  2  0  0  0
 25 21  1  0  0  0
 21  1  1  0  0  0
  1  2  2  0  0  0
  2  3  1  0  0  0
  3  4  2  0  0  0
  4  5  1  0  0  0
  4  6  1  0  0  0
  6  7  2  0  0  0
  7  8  1  0  0  0
  8 10  1  0  0  0
 10 11  2  0  0  0
 10 12  2  0  0  0
 10 13  1  0  0  0
 13 14  2  0  0  0
 14 15  1  0  0  0
 15 16  2  0  0  0
 16 17  1  0  0  0
 16 18  1  0  0  0
 18 19  1  0  0  0
 18 20  2  0  0  0
 25 26  1  0  0  0
 26 27  2  0  0  0
 38 34  1  0  0  0
 27 22  1  0  0  0
  7  1  1  0  0  0
 20 13  1  0  0  0
 30 31  1  0  0  0
  8  9  1  0  0  0
M  END
> <minimizedAffinity>
-7.79329

> <CNNscore>
0.4151020348

> <CNNaffinity>
7.2999596596

> <CNN_VS>
3.0302281380

> <CNNaffinity_variance>
0.1950557530

$$$$
[H]c1nc(Oc2c([H])c([H])c(C(=O)N([H])C([H])([H])C([H])([H])N3C([H])([H])C([H])([H])C([H])([H])C3([H])[H])c([H])c2[H])c(N([H])S(=O)(=O)c2c([H])c([H])c(Cl)c(Cl)c2[H])c([H])c1Cl


 38 41  0  0  0  0  0  0  0  0999 V2000
   34.6977  -11.4031   37.1746 C   0  0  0  0  0  0  0  0  0  0  0  0
   35.4845  -10.8743   36.2202 N   0  0  0  0  0  0  0  0  0  0  0  0
   35.2171   -9.6859   35.6712 C   0  0  0  0  0  0  0  0  0  0  0  0
   34.1213   -8.9974   36.0915 C   0  0  0  0  0  0  0  0  0  0  0  0
   33.7787   -7.4374   35.3637 Cl  0  0  0  0  0  0  0  0  0  0  0  0
   33.2872   -9.5302   37.0860 C   0  0  0  0  0  0  0  0  0  0  0  0
   33.5788  -10.7537   37.6372 C   0  0  0  0  0  0  0  0  0  0  0  0
   32.8124  -11.3601   38.6589 N   0  0  0  0  0  0  0  0  0  0  0  0
   33.1243  -11.3097   39.6733 H   0  0  0  0  0  0  0  0  0  0  0  0
   31.3633  -12.1869   38.2631 S   0  0  0  0  0  0  0  0  0  0  0  0
   31.2125  -12.1951   36.7473 O   0  0  0  0  0  0  0  0  0  0  0  0
   31.5186  -13.6275   38.7449 O   0  0  0  0  0  0  0  0  0  0  0  0
   29.9279  -11.5333   38.9583 C   0  0  0  0  0  0  0  0  0  0  0  0
   29.3351  -10.3797   38.4336 C   0  0  0  0  0  0  0  0  0  0  0  0
   28.2005   -9.9004   39.0222 C   0  0  0  0  0  0  0  0  0  0  0  0
   27.6402  -10.5365   40.1173 C   0  0  0  0  0  0  0  0  0  0  0  0
   26.1908   -9.9106   40.8592 Cl  0  0  0  0  0  0  0  0  0  0  0  0
   28.2255  -11.6817   40.6414 C   0  0  0  0  0  0  0  0  0  0  0  0
   27.4873  -12.4515   42.0212 Cl  0  0  0  0  0  0  0  0  0  0  0  0
   29.3796  -12.1711   40.0439 C   0  0  0  0  0  0  0  0  0  0  0  0
   35.0453  -12.6522   37.6997 O   0  0  0  0  0  0  0  0  0  0  0  0
   34.0971  -16.1790   35.6342 C   0  0  0  0  0  0  0  0  0  0  0  0
   35.1623  -16.1457   36.5467 C   0  0  0  0  0  0  0  0  0  0  0  0
   35.4669  -14.9772   37.2220 C   0  0  0  0  0  0  0  0  0  0  0  0
   34.7464  -13.8232   37.0260 C   0  0  0  0  0  0  0  0  0  0  0  0
   33.7095  -13.8817   36.1278 C   0  0  0  0  0  0  0  0  0  0  0  0
   33.3842  -15.0379   35.4392 C   0  0  0  0  0  0  0  0  0  0  0  0
   33.6906  -17.4254   33.6632 O   0  0  0  0  0  0  0  0  0  0  0  0
   33.7849  -17.4212   34.9446 C   0  0  0  0  0  0  0  0  0  0  0  0
   33.5771  -18.6407   35.6199 N   0  0  0  0  0  0  0  0  0  0  0  0
   33.6578  -18.6113   36.6660 H   0  0  0  0  0  0  0  0  0  0  0  0
   33.2647  -19.9073   35.0216 C   0  0  0  0  0  0  0  0  0  0  0  0
   32.6024  -20.7930   36.0408 C   0  0  0  0  0  0  0  0  0  0  0  0
   33.5882  -21.5524   36.7543 N   0  0  0  0  0  0  0  0  0  0  0  0
   33.5006  -22.9658   36.6168 C   0  0  0  0  0  0  0  0  0  0  0  0
   32.9603  -23.5161   37.9263 C   0  0  0  0  0  0  0  0  0  0  0  0
   33.3932  -22.4745   38.9182 C   0  0  0  0  0  0  0  0  0  0  0  0
   33.7209  -21.2277   38.1389 C   0  0  0  0  0  0  0  0  0  0  0  0
 28 29  2  0  0  0
 29 30  1  0  0  0
 30 32  1  0  0  0
 32 33  1  0  0  0
 33 34  1  0  0  0
 34 35  1  0  0  0
 35 36  1  0  0  0
 36 37  1  0  0  0
 37 38  1  0  0  0
 29 22  1  0  0  0
 22 23  2  0  0  0
 23 24  1  0  0  0
 24 25  2  0  0  0
 25 21  1  0  0  0
 21  1  1  0  0  0
  1  2  2  0  0  0
  2  3  1  0  0  0
  3  4  2  0  0  0
  4  5  1  0  0  0
  4  6  1  0  0  0
  6  7  2  0  0  0
  7  8  1  0  0  0
  8 10  1  0  0  0
 10 11  2  0  0  0
 10 12  2  0  0  0
 10 13  1  0  0  0
 13 14  2  0  0  0
 14 15  1  0  0  0
 15 16  2  0  0  0
 16 17  1  0  0  0
 16 18  1  0  0  0
 18 19  1  0  0  0
 18 20  2  0  0  0
 25 26  1  0  0  0
 26 27  2  0  0  0
 38 34  1  0  0  0
 27 22  1  0  0  0
  7  1  1  0  0  0
 20 13  1  0  0  0
 30 31  1  0  0  0
  8  9  1  0  0  0
M  END
> <minimizedAffinity>
-6.29927

> <CNNscore>
0.3758163750

> <CNNaffinity>
7.0540161133

> <CNN_VS>
2.6510148048

> <CNNaffinity_variance>
0.3281454742

$$$$
[H]c1nc(Oc2c([H])c([H])c(C(=O)N([H])C([H])([H])C([H])([H])N3C([H])([H])C([H])([H])C([H])([H])C3([H])[H])c([H])c2[H])c(N([H])S(=O)(=O)c2c([H])c([H])c(Cl)c(Cl)c2[H])c([H])c1Cl


 38 41  0  0  0  0  0  0  0  0999 V2000
   37.8969  -19.8924   36.6616 C   0  0  0  0  0  0  0  0  0  0  0  0
   39.1139  -19.5529   37.1234 N   0  0  0  0  0  0  0  0  0  0  0  0
   39.7146  -20.2496   38.0924 C   0  0  0  0  0  0  0  0  0  0  0  0
   39.0759  -21.3282   38.6215 C   0  0  0  0  0  0  0  0  0  0  0  0
   39.8734  -22.2364   39.8942 Cl  0  0  0  0  0  0  0  0  0  0  0  0
   37.8061  -21.7002   38.1545 C   0  0  0  0  0  0  0  0  0  0  0  0
   37.2052  -20.9706   37.1583 C   0  0  0  0  0  0  0  0  0  0  0  0
   35.9406  -21.2814   36.6078 N   0  0  0  0  0  0  0  0  0  0  0  0
   35.8591  -21.6752   35.6244 H   0  0  0  0  0  0  0  0  0  0  0  0
   34.5198  -21.0224   37.5321 S   0  0  0  0  0  0  0  0  0  0  0  0
   34.1341  -22.3360   38.2002 O   0  0  0  0  0  0  0  0  0  0  0  0
   34.8659  -20.0067   38.6184 O   0  0  0  0  0  0  0  0  0  0  0  0
   33.1627  -20.4318   36.6487 C   0  0  0  0  0  0  0  0  0  0  0  0
   33.2004  -19.1808   36.0234 C   0  0  0  0  0  0  0  0  0  0  0  0
   32.0982  -18.7573   35.3383 C   0  0  0  0  0  0  0  0  0  0  0  0
   30.9608  -19.5433   35.2583 C   0  0  0  0  0  0  0  0  0  0  0  0
   29.5599  -18.9872   34.3803 Cl  0  0  0  0  0  0  0  0  0  0  0  0
   30.9191  -20.7856   35.8777 C   0  0  0  0  0  0  0  0  0  0  0  0
   29.4672  -21.7434   35.7521 Cl  0  0  0  0  0  0  0  0  0  0  0  0
   32.0394  -21.2184   36.5750 C   0  0  0  0  0  0  0  0  0  0  0  0
   37.3352  -19.1126   35.6451 O   0  0  0  0  0  0  0  0  0  0  0  0
   35.3270  -15.5435   36.5576 C   0  0  0  0  0  0  0  0  0  0  0  0
   35.4148  -15.9996   35.2338 C   0  0  0  0  0  0  0  0  0  0  0  0
   36.0800  -17.1776   34.9438 C   0  0  0  0  0  0  0  0  0  0  0  0
   36.6701  -17.9329   35.9289 C   0  0  0  0  0  0  0  0  0  0  0  0
   36.5705  -17.4649   37.2159 C   0  0  0  0  0  0  0  0  0  0  0  0
   35.9109  -16.2896   37.5327 C   0  0  0  0  0  0  0  0  0  0  0  0
   33.3854  -14.3640   37.2227 O   0  0  0  0  0  0  0  0  0  0  0  0
   34.6115  -14.3094   36.8428 C   0  0  0  0  0  0  0  0  0  0  0  0
   35.2031  -13.0359   36.7223 N   0  0  0  0  0  0  0  0  0  0  0  0
   36.2047  -13.0174   36.4089 H   0  0  0  0  0  0  0  0  0  0  0  0
   34.5733  -11.7724   36.9804 C   0  0  0  0  0  0  0  0  0  0  0  0
   35.1154  -10.7393   36.0313 C   0  0  0  0  0  0  0  0  0  0  0  0
   34.9997   -9.4293   36.6042 N   0  0  0  0  0  0  0  0  0  0  0  0
   33.7818   -9.1572   37.2876 C   0  0  0  0  0  0  0  0  0  0  0  0
   32.9692   -8.2196   36.4101 C   0  0  0  0  0  0  0  0  0  0  0  0
   34.0328   -7.5162   35.6162 C   0  0  0  0  0  0  0  0  0  0  0  0
   35.2841   -8.3491   35.7140 C   0  0  0  0  0  0  0  0  0  0  0  0
 28 29  2  0  0  0
 29 30  1  0  0  0
 30 32  1  0  0  0
 32 33  1  0  0  0
 33 34  1  0  0  0
 34 35  1  0  0  0
 35 36  1  0  0  0
 36 37  1  0  0  0
 37 38  1  0  0  0
 29 22  1  0  0  0
 22 23  2  0  0  0
 23 24  1  0  0  0
 24 25  2  0  0  0
 25 21  1  0  0  0
 21  1  1  0  0  0
  1  2  2  0  0  0
  2  3  1  0  0  0
  3  4  2  0  0  0
  4  5  1  0  0  0
  4  6  1  0  0  0
  6  7  2  0  0  0
  7  8  1  0  0  0
  8 10  1  0  0  0
 10 11  2  0  0  0
 10 12  2  0  0  0
 10 13  1  0  0  0
 13 14  2  0  0  0
 14 15  1  0  0  0
 15 16  2  0  0  0
 16 17  1  0  0  0
 16 18  1  0  0  0
 18 19  1  0  0  0
 18 20  2  0  0  0
 25 26  1  0  0  0
 26 27  2  0  0  0
 38 34  1  0  0  0
 27 22  1  0  0  0
  7  1  1  0  0  0
 20 13  1  0  0  0
 30 31  1  0  0  0
  8  9  1  0  0  0
M  END
> <minimizedAffinity>
-6.53803

> <CNNscore>
0.2481571287

> <CNNaffinity>
6.3217210770

> <CNN_VS>
1.5687801838

> <CNNaffinity_variance>
0.1003316864

$$$$
[H]c1nc(Oc2c([H])c([H])c(C(=O)N([H])C([H])([H])C([H])([H])N3C([H])([H])C([H])([H])C([H])([H])C3([H])[H])c([H])c2[H])c(N([H])S(=O)(=O)c2c([H])c([H])c(Cl)c(Cl)c2[H])c([H])c1Cl


 38 41  0  0  0  0  0  0  0  0999 V2000
   34.2989  -12.0781   37.1269 C   0  0  0  0  0  0  0  0  0  0  0  0
   35.3156  -11.8908   36.2661 N   0  0  0  0  0  0  0  0  0  0  0  0
   35.6518  -10.6720   35.8340 C   0  0  0  0  0  0  0  0  0  0  0  0
   34.9459   -9.5972   36.2787 C   0  0  0  0  0  0  0  0  0  0  0  0
   35.3953   -8.0005   35.7048 Cl  0  0  0  0  0  0  0  0  0  0  0  0
   33.8819   -9.7696   37.1770 C   0  0  0  0  0  0  0  0  0  0  0  0
   33.5514  -11.0307   37.6087 C   0  0  0  0  0  0  0  0  0  0  0  0
   32.5128  -11.3012   38.5290 N   0  0  0  0  0  0  0  0  0  0  0  0
   32.7154  -11.3739   39.5694 H   0  0  0  0  0  0  0  0  0  0  0  0
   30.9073  -11.5150   37.9664 S   0  0  0  0  0  0  0  0  0  0  0  0
   30.2909  -10.1411   37.7362 O   0  0  0  0  0  0  0  0  0  0  0  0
   30.9908  -12.2421   36.6262 O   0  0  0  0  0  0  0  0  0  0  0  0
   29.8740  -12.4170   39.0102 C   0  0  0  0  0  0  0  0  0  0  0  0
   30.4027  -13.2397   40.0107 C   0  0  0  0  0  0  0  0  0  0  0  0
   29.5418  -13.9357   40.8095 C   0  0  0  0  0  0  0  0  0  0  0  0
   28.1710  -13.8359   40.6403 C   0  0  0  0  0  0  0  0  0  0  0  0
   27.0842  -14.7330   41.6683 Cl  0  0  0  0  0  0  0  0  0  0  0  0
   27.6420  -13.0206   39.6483 C   0  0  0  0  0  0  0  0  0  0  0  0
   25.9100  -12.9236   39.4696 Cl  0  0  0  0  0  0  0  0  0  0  0  0
   28.5160  -12.3115   38.8348 C   0  0  0  0  0  0  0  0  0  0  0  0
   34.0091  -13.3852   37.5322 O   0  0  0  0  0  0  0  0  0  0  0  0
   36.3841  -16.6297   36.3337 C   0  0  0  0  0  0  0  0  0  0  0  0
   36.8278  -15.7432   37.3265 C   0  0  0  0  0  0  0  0  0  0  0  0
   36.0370  -14.6761   37.7138 C   0  0  0  0  0  0  0  0  0  0  0  0
   34.8051  -14.4497   37.1477 C   0  0  0  0  0  0  0  0  0  0  0  0
   34.3940  -15.3310   36.1784 C   0  0  0  0  0  0  0  0  0  0  0  0
   35.1659  -16.4062   35.7727 C   0  0  0  0  0  0  0  0  0  0  0  0
   37.5900  -18.6019   36.8433 O   0  0  0  0  0  0  0  0  0  0  0  0
   37.2250  -17.7531   35.9505 C   0  0  0  0  0  0  0  0  0  0  0  0
   37.6675  -17.9628   34.6289 N   0  0  0  0  0  0  0  0  0  0  0  0
   37.3576  -17.2552   33.9182 H   0  0  0  0  0  0  0  0  0  0  0  0
   38.4968  -19.0383   34.1650 C   0  0  0  0  0  0  0  0  0  0  0  0
   39.7828  -18.4802   33.6202 C   0  0  0  0  0  0  0  0  0  0  0  0
   40.9036  -19.0529   34.3082 N   0  0  0  0  0  0  0  0  0  0  0  0
   40.6279  -19.6032   35.5910 C   0  0  0  0  0  0  0  0  0  0  0  0
   41.2089  -18.6540   36.6259 C   0  0  0  0  0  0  0  0  0  0  0  0
   42.3213  -17.9890   35.8667 C   0  0  0  0  0  0  0  0  0  0  0  0
   42.0544  -18.2121   34.4010 C   0  0  0  0  0  0  0  0  0  0  0  0
 28 29  2  0  0  0
 29 30  1  0  0  0
 30 32  1  0  0  0
 32 33  1  0  0  0
 33 34  1  0  0  0
 34 35  1  0  0  0
 35 36  1  0  0  0
 36 37  1  0  0  0
 37 38  1  0  0  0
 29 22  1  0  0  0
 22 23  2  0  0  0
 23 24  1  0  0  0
 24 25  2  0  0  0
 25 21  1  0  0  0
 21  1  1  0  0  0
  1  2  2  0  0  0
  2  3  1  0  0  0
  3  4  2  0  0  0
  4  5  1  0  0  0
  4  6  1  0  0  0
  6  7  2  0  0  0
  7  8  1  0  0  0
  8 10  1  0  0  0
 10 11  2  0  0  0
 10 12  2  0  0  0
 10 13  1  0  0  0
 13 14  2  0  0  0
 14 15  1  0  0  0
 15 16  2  0  0  0
 16 17  1  0  0  0
 16 18  1  0  0  0
 18 19  1  0  0  0
 18 20  2  0  0  0
 25 26  1  0  0  0
 26 27  2  0  0  0
 38 34  1  0  0  0
 27 22  1  0  0  0
  7  1  1  0  0  0
 20 13  1  0  0  0
 30 31  1  0  0  0
  8  9  1  0  0  0
M  END
> <minimizedAffinity>
-8.89655

> <CNNscore>
0.2022472173

> <CNNaffinity>
6.9097685814

> <CNN_VS>
1.3974814415

> <CNNaffinity_variance>
0.1067524776

$$$$
[H]c1nc(Oc2c([H])c([H])c(C(=O)N([H])C([H])([H])C([H])([H])N3C([H])([H])C([H])([H])C([H])([H])C3([H])[H])c([H])c2[H])c(N([H])S(=O)(=O)c2c([H])c([H])c(Cl)c(Cl)c2[H])c([H])c1Cl


 38 41  0  0  0  0  0  0  0  0999 V2000
   34.2905  -12.0552   37.1402 C   0  0  0  0  0  0  0  0  0  0  0  0
   35.3341  -11.8865   36.3082 N   0  0  0  0  0  0  0  0  0  0  0  0
   35.6902  -10.6763   35.8680 C   0  0  0  0  0  0  0  0  0  0  0  0
   34.9770   -9.5911   36.2743 C   0  0  0  0  0  0  0  0  0  0  0  0
   35.4526   -8.0059   35.6899 Cl  0  0  0  0  0  0  0  0  0  0  0  0
   33.8850   -9.7441   37.1419 C   0  0  0  0  0  0  0  0  0  0  0  0
   33.5345  -10.9967   37.5826 C   0  0  0  0  0  0  0  0  0  0  0  0
   32.4667  -11.2476   38.4747 N   0  0  0  0  0  0  0  0  0  0  0  0
   32.6356  -11.2975   39.5224 H   0  0  0  0  0  0  0  0  0  0  0  0
   30.8800  -11.4744   37.8653 S   0  0  0  0  0  0  0  0  0  0  0  0
   30.3230  -10.1170   37.4558 O   0  0  0  0  0  0  0  0  0  0  0  0
   30.9950  -12.3496   36.6194 O   0  0  0  0  0  0  0  0  0  0  0  0
   29.7719  -12.2216   38.9537 C   0  0  0  0  0  0  0  0  0  0  0  0
   28.3950  -12.1997   38.7063 C   0  0  0  0  0  0  0  0  0  0  0  0
   27.5589  -12.8035   39.6008 C   0  0  0  0  0  0  0  0  0  0  0  0
   28.0545  -13.4277   40.7332 C   0  0  0  0  0  0  0  0  0  0  0  0
   26.9728  -14.1935   41.8674 Cl  0  0  0  0  0  0  0  0  0  0  0  0
   29.4204  -13.4516   40.9827 C   0  0  0  0  0  0  0  0  0  0  0  0
   30.0024  -14.2487   42.4206 Cl  0  0  0  0  0  0  0  0  0  0  0  0
   30.2728  -12.8382   40.0739 C   0  0  0  0  0  0  0  0  0  0  0  0
   33.9812  -13.3544   37.5564 O   0  0  0  0  0  0  0  0  0  0  0  0
   36.3470  -16.6207   36.3998 C   0  0  0  0  0  0  0  0  0  0  0  0
   35.1139  -16.3717   35.7787 C   0  0  0  0  0  0  0  0  0  0  0  0
   34.3413  -15.2921   36.1683 C   0  0  0  0  0  0  0  0  0  0  0  0
   34.7489  -14.4365   37.1638 C   0  0  0  0  0  0  0  0  0  0  0  0
   35.9588  -14.7020   37.7561 C   0  0  0  0  0  0  0  0  0  0  0  0
   36.7508  -15.7752   37.3851 C   0  0  0  0  0  0  0  0  0  0  0  0
   37.4539  -18.6723   36.8112 O   0  0  0  0  0  0  0  0  0  0  0  0
   37.1503  -17.7533   35.9662 C   0  0  0  0  0  0  0  0  0  0  0  0
   37.6207  -17.8976   34.6454 N   0  0  0  0  0  0  0  0  0  0  0  0
   37.3611  -17.1333   33.9744 H   0  0  0  0  0  0  0  0  0  0  0  0
   38.4167  -18.9768   34.1341 C   0  0  0  0  0  0  0  0  0  0  0  0
   39.7069  -18.4317   33.5861 C   0  0  0  0  0  0  0  0  0  0  0  0
   40.8243  -19.0480   34.2411 N   0  0  0  0  0  0  0  0  0  0  0  0
   40.5579  -19.6164   35.5179 C   0  0  0  0  0  0  0  0  0  0  0  0
   41.1836  -18.7041   36.5598 C   0  0  0  0  0  0  0  0  0  0  0  0
   42.2994  -18.0540   35.7926 C   0  0  0  0  0  0  0  0  0  0  0  0
   41.9991  -18.2403   34.3283 C   0  0  0  0  0  0  0  0  0  0  0  0
 28 29  2  0  0  0
 29 30  1  0  0  0
 30 32  1  0  0  0
 32 33  1  0  0  0
 33 34  1  0  0  0
 34 35  1  0  0  0
 35 36  1  0  0  0
 36 37  1  0  0  0
 37 38  1  0  0  0
 29 22  1  0  0  0
 22 23  2  0  0  0
 23 24  1  0  0  0
 24 25  2  0  0  0
 25 21  1  0  0  0
 21  1  1  0  0  0
  1  2  2  0  0  0
  2  3  1  0  0  0
  3  4  2  0  0  0
  4  5  1  0  0  0
  4  6  1  0  0  0
  6  7  2  0  0  0
  7  8  1  0  0  0
  8 10  1  0  0  0
 10 11  2  0  0  0
 10 12  2  0  0  0
 10 13  1  0  0  0
 13 14  2  0  0  0
 14 15  1  0  0  0
 15 16  2  0  0  0
 16 17  1  0  0  0
 16 18  1  0  0  0
 18 19  1  0  0  0
 18 20  2  0  0  0
 25 26  1  0  0  0
 26 27  2  0  0  0
 38 34  1  0  0  0
 27 22  1  0  0  0
  7  1  1  0  0  0
 20 13  1  0  0  0
 30 31  1  0  0  0
  8  9  1  0  0  0
M  END
> <minimizedAffinity>
-8.72344

> <CNNscore>
0.1906591952

> <CNNaffinity>
6.9417214394

> <CNN_VS>
1.3235030174

> <CNNaffinity_variance>
0.0826775283

$$$$
[H]c1nc(Oc2c([H])c([H])c(C(=O)N([H])C([H])([H])C([H])([H])N3C([H])([H])C([H])([H])C([H])([H])C3([H])[H])c([H])c2[H])c(N([H])S(=O)(=O)c2c([H])c([H])c(Cl)c(Cl)c2[H])c([H])c1Cl


 38 41  0  0  0  0  0  0  0  0999 V2000
   33.7453  -11.9575   37.4302 C   0  0  0  0  0  0  0  0  0  0  0  0
   34.8448  -11.5720   36.7577 N   0  0  0  0  0  0  0  0  0  0  0  0
   35.0253  -10.3035   36.3790 C   0  0  0  0  0  0  0  0  0  0  0  0
   34.0711   -9.3827   36.6838 C   0  0  0  0  0  0  0  0  0  0  0  0
   34.3175   -7.7191   36.1815 Cl  0  0  0  0  0  0  0  0  0  0  0  0
   32.9166   -9.7628   37.3848 C   0  0  0  0  0  0  0  0  0  0  0  0
   32.7494  -11.0720   37.7645 C   0  0  0  0  0  0  0  0  0  0  0  0
   31.6334  -11.5445   38.4926 N   0  0  0  0  0  0  0  0  0  0  0  0
   31.7364  -12.3442   39.1845 H   0  0  0  0  0  0  0  0  0  0  0  0
   30.0950  -10.8235   38.2611 S   0  0  0  0  0  0  0  0  0  0  0  0
   30.2937   -9.3326   38.0192 O   0  0  0  0  0  0  0  0  0  0  0  0
   29.4892  -11.4443   37.0045 O   0  0  0  0  0  0  0  0  0  0  0  0
   28.9810  -11.0295   39.5601 C   0  0  0  0  0  0  0  0  0  0  0  0
   28.1791   -9.9688   39.9953 C   0  0  0  0  0  0  0  0  0  0  0  0
   27.3148  -10.1827   41.0301 C   0  0  0  0  0  0  0  0  0  0  0  0
   27.2265  -11.4213   41.6431 C   0  0  0  0  0  0  0  0  0  0  0  0
   26.1180  -11.6780   42.9653 Cl  0  0  0  0  0  0  0  0  0  0  0  0
   28.0208  -12.4767   41.2144 C   0  0  0  0  0  0  0  0  0  0  0  0
   27.8780  -14.0200   42.0139 Cl  0  0  0  0  0  0  0  0  0  0  0  0
   28.9006  -12.2614   40.1617 C   0  0  0  0  0  0  0  0  0  0  0  0
   33.6304  -13.3040   37.7914 O   0  0  0  0  0  0  0  0  0  0  0  0
   36.1643  -16.2304   36.1729 C   0  0  0  0  0  0  0  0  0  0  0  0
   36.6112  -15.3791   37.1946 C   0  0  0  0  0  0  0  0  0  0  0  0
   35.7676  -14.4170   37.7208 C   0  0  0  0  0  0  0  0  0  0  0  0
   34.4791  -14.2633   37.2678 C   0  0  0  0  0  0  0  0  0  0  0  0
   34.0660  -15.1080   36.2674 C   0  0  0  0  0  0  0  0  0  0  0  0
   34.8900  -16.0787   35.7237 C   0  0  0  0  0  0  0  0  0  0  0  0
   37.0164  -17.5372   34.3925 O   0  0  0  0  0  0  0  0  0  0  0  0
   37.0627  -17.2442   35.6426 C   0  0  0  0  0  0  0  0  0  0  0  0
   37.9969  -17.9332   36.4419 N   0  0  0  0  0  0  0  0  0  0  0  0
   38.0145  -17.6775   37.4598 H   0  0  0  0  0  0  0  0  0  0  0  0
   38.9161  -18.9446   36.0039 C   0  0  0  0  0  0  0  0  0  0  0  0
   38.1733  -20.2329   35.7786 C   0  0  0  0  0  0  0  0  0  0  0  0
   38.5228  -20.7913   34.5044 N   0  0  0  0  0  0  0  0  0  0  0  0
   39.0702  -22.1042   34.5324 C   0  0  0  0  0  0  0  0  0  0  0  0
   40.5572  -21.9818   34.2434 C   0  0  0  0  0  0  0  0  0  0  0  0
   40.6271  -20.7157   33.4381 C   0  0  0  0  0  0  0  0  0  0  0  0
   39.3458  -19.9624   33.6824 C   0  0  0  0  0  0  0  0  0  0  0  0
 28 29  2  0  0  0
 29 30  1  0  0  0
 30 32  1  0  0  0
 32 33  1  0  0  0
 33 34  1  0  0  0
 34 35  1  0  0  0
 35 36  1  0  0  0
 36 37  1  0  0  0
 37 38  1  0  0  0
 29 22  1  0  0  0
 22 23  2  0  0  0
 23 24  1  0  0  0
 24 25  2  0  0  0
 25 21  1  0  0  0
 21  1  1  0  0  0
  1  2  2  0  0  0
  2  3  1  0  0  0
  3  4  2  0  0  0
  4  5  1  0  0  0
  4  6  1  0  0  0
  6  7  2  0  0  0
  7  8  1  0  0  0
  8 10  1  0  0  0
 10 11  2  0  0  0
 10 12  2  0  0  0
 10 13  1  0  0  0
 13 14  2  0  0  0
 14 15  1  0  0  0
 15 16  2  0  0  0
 16 17  1  0  0  0
 16 18  1  0  0  0
 18 19  1  0  0  0
 18 20  2  0  0  0
 25 26  1  0  0  0
 26 27  2  0  0  0
 38 34  1  0  0  0
 27 22  1  0  0  0
  7  1  1  0  0  0
 20 13  1  0  0  0
 30 31  1  0  0  0
  8  9  1  0  0  0
M  END
> <minimizedAffinity>
-7.84725

> <CNNscore>
0.1875785589

> <CNNaffinity>
6.6710190773

> <CNN_VS>
1.2513401508

> <CNNaffinity_variance>
0.1669116020

$$$$
[H]c1nc(Oc2c([H])c([H])c(C(=O)N([H])C([H])([H])C([H])([H])N3C([H])([H])C([H])([H])C([H])([H])C3([H])[H])c([H])c2[H])c(N([H])S(=O)(=O)c2c([H])c([H])c(Cl)c(Cl)c2[H])c([H])c1Cl


 38 41  0  0  0  0  0  0  0  0999 V2000
   34.7430  -17.1093   35.1918 C   0  0  0  0  0  0  0  0  0  0  0  0
   33.7424  -16.2855   35.5525 N   0  0  0  0  0  0  0  0  0  0  0  0
   33.9801  -15.1167   36.1546 C   0  0  0  0  0  0  0  0  0  0  0  0
   35.2674  -14.7551   36.4067 C   0  0  0  0  0  0  0  0  0  0  0  0
   35.5688  -13.2179   37.1984 Cl  0  0  0  0  0  0  0  0  0  0  0  0
   36.3263  -15.5989   36.0388 C   0  0  0  0  0  0  0  0  0  0  0  0
   36.0611  -16.7965   35.4215 C   0  0  0  0  0  0  0  0  0  0  0  0
   37.0605  -17.7005   34.9937 N   0  0  0  0  0  0  0  0  0  0  0  0
   37.3346  -17.7608   33.9690 H   0  0  0  0  0  0  0  0  0  0  0  0
   37.8420  -18.7128   36.1360 S   0  0  0  0  0  0  0  0  0  0  0  0
   38.5679  -17.8306   37.1437 O   0  0  0  0  0  0  0  0  0  0  0  0
   36.7530  -19.4937   36.8679 O   0  0  0  0  0  0  0  0  0  0  0  0
   38.9672  -19.8389   35.4752 C   0  0  0  0  0  0  0  0  0  0  0  0
   38.6602  -20.5707   34.3229 C   0  0  0  0  0  0  0  0  0  0  0  0
   39.5844  -21.4523   33.8411 C   0  0  0  0  0  0  0  0  0  0  0  0
   40.8041  -21.6258   34.4734 C   0  0  0  0  0  0  0  0  0  0  0  0
   41.9739  -22.7575   33.8461 Cl  0  0  0  0  0  0  0  0  0  0  0  0
   41.1128  -20.9016   35.6175 C   0  0  0  0  0  0  0  0  0  0  0  0
   42.6600  -21.1505   36.3826 Cl  0  0  0  0  0  0  0  0  0  0  0  0
   40.1741  -20.0040   36.1092 C   0  0  0  0  0  0  0  0  0  0  0  0
   34.4121  -18.3155   34.5656 O   0  0  0  0  0  0  0  0  0  0  0  0
   31.1656  -20.6244   35.8819 C   0  0  0  0  0  0  0  0  0  0  0  0
   31.0751  -19.8620   34.7077 C   0  0  0  0  0  0  0  0  0  0  0  0
   32.1514  -19.1036   34.2829 C   0  0  0  0  0  0  0  0  0  0  0  0
   33.3318  -19.0708   34.9864 C   0  0  0  0  0  0  0  0  0  0  0  0
   33.3949  -19.8249   36.1320 C   0  0  0  0  0  0  0  0  0  0  0  0
   32.3326  -20.5921   36.5788 C   0  0  0  0  0  0  0  0  0  0  0  0
   29.5605  -21.2827   37.4925 O   0  0  0  0  0  0  0  0  0  0  0  0
   30.0270  -21.4255   36.3039 C   0  0  0  0  0  0  0  0  0  0  0  0
   29.3984  -22.3656   35.4629 N   0  0  0  0  0  0  0  0  0  0  0  0
   29.7985  -22.4652   34.4976 H   0  0  0  0  0  0  0  0  0  0  0  0
   28.2762  -23.1958   35.7964 C   0  0  0  0  0  0  0  0  0  0  0  0
   28.6377  -24.6390   35.5760 C   0  0  0  0  0  0  0  0  0  0  0  0
   28.5139  -25.3747   36.8012 N   0  0  0  0  0  0  0  0  0  0  0  0
   28.3660  -24.5932   37.9809 C   0  0  0  0  0  0  0  0  0  0  0  0
   29.6808  -24.6646   38.7398 C   0  0  0  0  0  0  0  0  0  0  0  0
   30.2448  -25.9810   38.2868 C   0  0  0  0  0  0  0  0  0  0  0  0
   29.5216  -26.3626   37.0217 C   0  0  0  0  0  0  0  0  0  0  0  0
 28 29  2  0  0  0
 29 30  1  0  0  0
 30 32  1  0  0  0
 32 33  1  0  0  0
 33 34  1  0  0  0
 34 35  1  0  0  0
 35 36  1  0  0  0
 36 37  1  0  0  0
 37 38  1  0  0  0
 29 22  1  0  0  0
 22 23  2  0  0  0
 23 24  1  0  0  0
 24 25  2  0  0  0
 25 21  1  0  0  0
 21  1  1  0  0  0
  1  2  2  0  0  0
  2  3  1  0  0  0
  3  4  2  0  0  0
  4  5  1  0  0  0
  4  6  1  0  0  0
  6  7  2  0  0  0
  7  8  1  0  0  0
  8 10  1  0  0  0
 10 11  2  0  0  0
 10 12  2  0  0  0
 10 13  1  0  0  0
 13 14  2  0  0  0
 14 15  1  0  0  0
 15 16  2  0  0  0
 16 17  1  0  0  0
 16 18  1  0  0  0
 18 19  1  0  0  0
 18 20  2  0  0  0
 25 26  1  0  0  0
 26 27  2  0  0  0
 38 34  1  0  0  0
 27 22  1  0  0  0
  7  1  1  0  0  0
 20 13  1  0  0  0
 30 31  1  0  0  0
  8  9  1  0  0  0
M  END
> <minimizedAffinity>
-5.80284

> <CNNscore>
0.1759441346

> <CNNaffinity>
5.7639517784

> <CNN_VS>
1.0141334534

> <CNNaffinity_variance>
0.3405767381

$$$$
[H]c1c([H])c(N([H])c2nc(N([H])[H])nc(C([H])([H])Cl)n2)c([H])c([H])c1OC([H])([H])[H]


 21 22  0  0  0  0  0  0  0  0999 V2000
   33.8363  -13.1979   36.9773 C   0  0  0  0  0  0  0  0  0  0  0  0
   33.3821  -14.2240   36.2496 N   0  0  0  0  0  0  0  0  0  0  0  0
   34.0263  -15.3682   36.0117 C   0  0  0  0  0  0  0  0  0  0  0  0
   33.4765  -16.4167   35.2255 N   0  0  0  0  0  0  0  0  0  0  0  0
   35.2678  -15.5224   36.5551 N   0  0  0  0  0  0  0  0  0  0  0  0
   35.7899  -14.5248   37.3026 C   0  0  0  0  0  0  0  0  0  0  0  0
   35.0908  -13.4056   37.5010 N   0  0  0  0  0  0  0  0  0  0  0  0
   32.4479  -16.4633   35.0677 H   0  0  0  0  0  0  0  0  0  0  0  0
   34.0970  -17.1384   34.8066 H   0  0  0  0  0  0  0  0  0  0  0  0
   33.1617  -11.9874   37.2326 N   0  0  0  0  0  0  0  0  0  0  0  0
   33.7306  -11.1131   37.0560 H   0  0  0  0  0  0  0  0  0  0  0  0
   29.3049  -11.7753   38.8452 C   0  0  0  0  0  0  0  0  0  0  0  0
   29.6293  -10.9239   37.8194 C   0  0  0  0  0  0  0  0  0  0  0  0
   30.9043  -10.9575   37.2377 C   0  0  0  0  0  0  0  0  0  0  0  0
   31.8500  -11.8500   37.6924 C   0  0  0  0  0  0  0  0  0  0  0  0
   31.4882  -12.7150   38.7495 C   0  0  0  0  0  0  0  0  0  0  0  0
   30.2341  -12.6740   39.3132 C   0  0  0  0  0  0  0  0  0  0  0  0
   27.0695  -10.9009   38.8492 C   0  0  0  0  0  0  0  0  0  0  0  0
   28.0487  -11.7238   39.3995 O   0  0  0  0  0  0  0  0  0  0  0  0
   37.1465  -14.6518   37.9167 C   0  0  0  0  0  0  0  0  0  0  0  0
   38.1280  -13.2400   37.4652 Cl  0  0  0  0  0  0  0  0  0  0  0  0
 18 19  1  0  0  0
 19 12  1  0  0  0
 12 13  2  0  0  0
 13 14  1  0  0  0
 14 15  2  0  0  0
 15 10  1  0  0  0
 10  1  1  0  0  0
  1  2  2  0  0  0
  2  3  1  0  0  0
  3  4  1  0  0  0
  3  5  2  0  0  0
  5  6  1  0  0  0
  6 20  1  0  0  0
 20 21  1  0  0  0
  6  7  2  0  0  0
 15 16  1  0  0  0
 16 17  2  0  0  0
 17 12  1  0  0  0
  7  1  1  0  0  0
 10 11  1  0  0  0
  4  8  1  0  0  0
  4  9  1  0  0  0
M  END
> <minimizedAffinity>
-7.19051

> <CNNscore>
0.6484843493

> <CNNaffinity>
5.0056257248

> <CNN_VS>
3.2460699081

> <CNNaffinity_variance>
0.4406222701

$$$$
[H]c1c([H])c(N([H])c2nc(N([H])[H])nc(C([H])([H])Cl)n2)c([H])c([H])c1OC([H])([H])[H]


 21 22  0  0  0  0  0  0  0  0999 V2000
   29.3911  -20.4097   35.6450 C   0  0  0  0  0  0  0  0  0  0  0  0
   29.3099  -21.6776   35.2271 N   0  0  0  0  0  0  0  0  0  0  0  0
   28.6136  -22.6565   35.8085 C   0  0  0  0  0  0  0  0  0  0  0  0
   28.5757  -23.9843   35.3036 N   0  0  0  0  0  0  0  0  0  0  0  0
   27.9119  -22.3518   36.9379 N   0  0  0  0  0  0  0  0  0  0  0  0
   27.9485  -21.0888   37.4173 C   0  0  0  0  0  0  0  0  0  0  0  0
   28.6659  -20.1575   36.7859 N   0  0  0  0  0  0  0  0  0  0  0  0
   28.8282  -24.1699   34.3101 H   0  0  0  0  0  0  0  0  0  0  0  0
   28.2966  -24.7724   35.9219 H   0  0  0  0  0  0  0  0  0  0  0  0
   30.1239  -19.3716   35.0363 N   0  0  0  0  0  0  0  0  0  0  0  0
   29.5532  -18.5249   34.7591 H   0  0  0  0  0  0  0  0  0  0  0  0
   34.2718  -19.2000   34.5019 C   0  0  0  0  0  0  0  0  0  0  0  0
   33.5395  -19.9989   33.6605 C   0  0  0  0  0  0  0  0  0  0  0  0
   32.1466  -20.0876   33.7902 C   0  0  0  0  0  0  0  0  0  0  0  0
   31.4948  -19.3703   34.7692 C   0  0  0  0  0  0  0  0  0  0  0  0
   32.2740  -18.5557   35.6211 C   0  0  0  0  0  0  0  0  0  0  0  0
   33.6406  -18.4755   35.4850 C   0  0  0  0  0  0  0  0  0  0  0  0
   36.2907  -17.9031   34.4401 C   0  0  0  0  0  0  0  0  0  0  0  0
   35.6362  -19.1292   34.3553 O   0  0  0  0  0  0  0  0  0  0  0  0
   27.1948  -20.7116   38.6515 C   0  0  0  0  0  0  0  0  0  0  0  0
   27.4821  -21.9343   39.9096 Cl  0  0  0  0  0  0  0  0  0  0  0  0
 18 19  1  0  0  0
 19 12  1  0  0  0
 12 13  2  0  0  0
 13 14  1  0  0  0
 14 15  2  0  0  0
 15 10  1  0  0  0
 10  1  1  0  0  0
  1  2  2  0  0  0
  2  3  1  0  0  0
  3  4  1  0  0  0
  3  5  2  0  0  0
  5  6  1  0  0  0
  6 20  1  0  0  0
 20 21  1  0  0  0
  6  7  2  0  0  0
 15 16  1  0  0  0
 16 17  2  0  0  0
 17 12  1  0  0  0
  7  1  1  0  0  0
 10 11  1  0  0  0
  4  8  1  0  0  0
  4  9  1  0  0  0
M  END
> <minimizedAffinity>
-4.81674

> <CNNscore>
0.6376816630

> <CNNaffinity>
4.0551066399

> <CNN_VS>
2.5858671665

> <CNNaffinity_variance>
0.6103094220

$$$$
[H]c1c([H])c(N([H])c2nc(N([H])[H])nc(C([H])([H])Cl)n2)c([H])c([H])c1OC([H])([H])[H]


 21 22  0  0  0  0  0  0  0  0999 V2000
   33.9162  -16.7378   35.5077 C   0  0  0  0  0  0  0  0  0  0  0  0
   35.1450  -17.1909   35.7789 N   0  0  0  0  0  0  0  0  0  0  0  0
   36.1360  -16.4953   36.3400 C   0  0  0  0  0  0  0  0  0  0  0  0
   37.4197  -17.0478   36.5980 N   0  0  0  0  0  0  0  0  0  0  0  0
   35.8890  -15.1964   36.6753 N   0  0  0  0  0  0  0  0  0  0  0  0
   34.6679  -14.6718   36.4296 C   0  0  0  0  0  0  0  0  0  0  0  0
   33.7214  -15.4242   35.8653 N   0  0  0  0  0  0  0  0  0  0  0  0
   37.5403  -18.0813   36.6474 H   0  0  0  0  0  0  0  0  0  0  0  0
   38.2402  -16.4243   36.7378 H   0  0  0  0  0  0  0  0  0  0  0  0
   32.8655  -17.4665   34.9157 N   0  0  0  0  0  0  0  0  0  0  0  0
   32.4534  -17.0288   34.0451 H   0  0  0  0  0  0  0  0  0  0  0  0
   31.0298  -21.0414   36.0863 C   0  0  0  0  0  0  0  0  0  0  0  0
   32.2966  -20.7799   36.5437 C   0  0  0  0  0  0  0  0  0  0  0  0
   32.9550  -19.5944   36.1887 C   0  0  0  0  0  0  0  0  0  0  0  0
   32.3342  -18.6748   35.3722 C   0  0  0  0  0  0  0  0  0  0  0  0
   31.0298  -18.9700   34.9164 C   0  0  0  0  0  0  0  0  0  0  0  0
   30.3924  -20.1364   35.2710 C   0  0  0  0  0  0  0  0  0  0  0  0
   29.1678  -22.5450   35.9026 C   0  0  0  0  0  0  0  0  0  0  0  0
   30.4045  -22.2103   36.4479 O   0  0  0  0  0  0  0  0  0  0  0  0
   34.3545  -13.2534   36.7808 C   0  0  0  0  0  0  0  0  0  0  0  0
   33.2327  -13.2258   38.1596 Cl  0  0  0  0  0  0  0  0  0  0  0  0
 18 19  1  0  0  0
 19 12  1  0  0  0
 12 13  2  0  0  0
 13 14  1  0  0  0
 14 15  2  0  0  0
 15 10  1  0  0  0
 10  1  1  0  0  0
  1  2  2  0  0  0
  2  3  1  0  0  0
  3  4  1  0  0  0
  3  5  2  0  0  0
  5  6  1  0  0  0
  6 20  1  0  0  0
 20 21  1  0  0  0
  6  7  2  0  0  0
 15 16  1  0  0  0
 16 17  2  0  0  0
 17 12  1  0  0  0
  7  1  1  0  0  0
 10 11  1  0  0  0
  4  8  1  0  0  0
  4  9  1  0  0  0
M  END
> <minimizedAffinity>
-5.63397

> <CNNscore>
0.4577973783

> <CNNaffinity>
4.1958837509

> <CNN_VS>
1.9208645821

> <CNNaffinity_variance>
0.7103282809

$$$$
[H]c1c([H])c(N([H])c2nc(N([H])[H])nc(C([H])([H])Cl)n2)c([H])c([H])c1OC([H])([H])[H]


 21 22  0  0  0  0  0  0  0  0999 V2000
   33.9153  -16.4683   35.5502 C   0  0  0  0  0  0  0  0  0  0  0  0
   33.8555  -15.2385   36.0726 N   0  0  0  0  0  0  0  0  0  0  0  0
   34.7852  -14.6596   36.8350 C   0  0  0  0  0  0  0  0  0  0  0  0
   34.6499  -13.3441   37.3553 N   0  0  0  0  0  0  0  0  0  0  0  0
   35.9104  -15.3767   37.1182 N   0  0  0  0  0  0  0  0  0  0  0  0
   36.0382  -16.6276   36.6229 C   0  0  0  0  0  0  0  0  0  0  0  0
   35.0691  -17.1464   35.8664 N   0  0  0  0  0  0  0  0  0  0  0  0
   33.9802  -12.6779   36.9162 H   0  0  0  0  0  0  0  0  0  0  0  0
   35.2171  -13.0431   38.1733 H   0  0  0  0  0  0  0  0  0  0  0  0
   32.9378  -17.0856   34.7446 N   0  0  0  0  0  0  0  0  0  0  0  0
   32.3548  -16.4220   34.1621 H   0  0  0  0  0  0  0  0  0  0  0  0
   31.8782  -21.1334   34.6320 C   0  0  0  0  0  0  0  0  0  0  0  0
   33.0112  -20.7383   33.9667 C   0  0  0  0  0  0  0  0  0  0  0  0
   33.4162  -19.3964   33.9778 C   0  0  0  0  0  0  0  0  0  0  0  0
   32.6770  -18.4551   34.6599 C   0  0  0  0  0  0  0  0  0  0  0  0
   31.5153  -18.8903   35.3363 C   0  0  0  0  0  0  0  0  0  0  0  0
   31.1268  -20.2099   35.3193 C   0  0  0  0  0  0  0  0  0  0  0  0
   30.9685  -23.0564   35.7438 C   0  0  0  0  0  0  0  0  0  0  0  0
   31.5013  -22.4545   34.6068 O   0  0  0  0  0  0  0  0  0  0  0  0
   37.2543  -17.4482   36.9084 C   0  0  0  0  0  0  0  0  0  0  0  0
   36.7603  -19.1108   37.2984 Cl  0  0  0  0  0  0  0  0  0  0  0  0
 18 19  1  0  0  0
 19 12  1  0  0  0
 12 13  2  0  0  0
 13 14  1  0  0  0
 14 15  2  0  0  0
 15 10  1  0  0  0
 10  1  1  0  0  0
  1  2  2  0  0  0
  2  3  1  0  0  0
  3  4  1  0  0  0
  3  5  2  0  0  0
  5  6  1  0  0  0
  6 20  1  0  0  0
 20 21  1  0  0  0
  6  7  2  0  0  0
 15 16  1  0  0  0
 16 17  2  0  0  0
 17 12  1  0  0  0
  7  1  1  0  0  0
 10 11  1  0  0  0
  4  8  1  0  0  0
  4  9  1  0  0  0
M  END
> <minimizedAffinity>
-5.09280

> <CNNscore>
0.4280824065

> <CNNaffinity>
4.2337508202

> <CNN_VS>
1.8123942614

> <CNNaffinity_variance>
0.3850473762

$$$$
[H]c1c([H])c(N([H])c2nc(N([H])[H])nc(C([H])([H])Cl)n2)c([H])c([H])c1OC([H])([H])[H]


 21 22  0  0  0  0  0  0  0  0999 V2000
   33.2596  -18.4712   35.5067 C   0  0  0  0  0  0  0  0  0  0  0  0
   32.9537  -19.3811   34.5754 N   0  0  0  0  0  0  0  0  0  0  0  0
   32.9707  -20.7062   34.7320 C   0  0  0  0  0  0  0  0  0  0  0  0
   32.6314  -21.6127   33.6915 N   0  0  0  0  0  0  0  0  0  0  0  0
   33.3323  -21.1965   35.9525 N   0  0  0  0  0  0  0  0  0  0  0  0
   33.6547  -20.3336   36.9415 C   0  0  0  0  0  0  0  0  0  0  0  0
   33.6166  -19.0189   36.7166 N   0  0  0  0  0  0  0  0  0  0  0  0
   32.0671  -21.2845   32.8797 H   0  0  0  0  0  0  0  0  0  0  0  0
   32.9443  -22.6035   33.7368 H   0  0  0  0  0  0  0  0  0  0  0  0
   33.2437  -17.0712   35.3483 N   0  0  0  0  0  0  0  0  0  0  0  0
   32.4023  -16.6894   34.8328 H   0  0  0  0  0  0  0  0  0  0  0  0
   35.9320  -14.1772   36.7334 C   0  0  0  0  0  0  0  0  0  0  0  0
   36.4051  -15.4419   36.4901 C   0  0  0  0  0  0  0  0  0  0  0  0
   35.5499  -16.4473   36.0182 C   0  0  0  0  0  0  0  0  0  0  0  0
   34.2184  -16.1751   35.7931 C   0  0  0  0  0  0  0  0  0  0  0  0
   33.7588  -14.8643   36.0519 C   0  0  0  0  0  0  0  0  0  0  0  0
   34.6066  -13.8847   36.5146 C   0  0  0  0  0  0  0  0  0  0  0  0
   38.0669  -13.5486   37.6326 C   0  0  0  0  0  0  0  0  0  0  0  0
   36.7894  -13.2081   37.1957 O   0  0  0  0  0  0  0  0  0  0  0  0
   34.0564  -20.8276   38.2936 C   0  0  0  0  0  0  0  0  0  0  0  0
   35.4632  -19.9007   38.8613 Cl  0  0  0  0  0  0  0  0  0  0  0  0
 18 19  1  0  0  0
 19 12  1  0  0  0
 12 13  2  0  0  0
 13 14  1  0  0  0
 14 15  2  0  0  0
 15 10  1  0  0  0
 10  1  1  0  0  0
  1  2  2  0  0  0
  2  3  1  0  0  0
  3  4  1  0  0  0
  3  5  2  0  0  0
  5  6  1  0  0  0
  6 20  1  0  0  0
 20 21  1  0  0  0
  6  7  2  0  0  0
 15 16  1  0  0  0
 16 17  2  0  0  0
 17 12  1  0  0  0
  7  1  1  0  0  0
 10 11  1  0  0  0
  4  8  1  0  0  0
  4  9  1  0  0  0
M  END
> <minimizedAffinity>
-5.86807

> <CNNscore>
0.4154497385

> <CNNaffinity>
4.1731009483

> <CNN_VS>
1.7337137461

> <CNNaffinity_variance>
0.4424570203

$$$$
[H]c1c([H])c(N([H])c2nc(N([H])[H])nc(C([H])([H])Cl)n2)c([H])c([H])c1OC([H])([H])[H]


 21 22  0  0  0  0  0  0  0  0999 V2000
   35.9277  -17.8859   36.5437 C   0  0  0  0  0  0  0  0  0  0  0  0
   34.8540  -17.9510   35.7488 N   0  0  0  0  0  0  0  0  0  0  0  0
   34.0395  -16.9403   35.4394 C   0  0  0  0  0  0  0  0  0  0  0  0
   32.9141  -17.0875   34.5841 N   0  0  0  0  0  0  0  0  0  0  0  0
   34.3137  -15.7169   35.9767 N   0  0  0  0  0  0  0  0  0  0  0  0
   35.3842  -15.5779   36.7899 C   0  0  0  0  0  0  0  0  0  0  0  0
   36.1580  -16.6314   37.0579 N   0  0  0  0  0  0  0  0  0  0  0  0
   32.8609  -17.8963   33.9298 H   0  0  0  0  0  0  0  0  0  0  0  0
   32.1426  -16.3906   34.6085 H   0  0  0  0  0  0  0  0  0  0  0  0
   36.7918  -18.9486   36.8745 N   0  0  0  0  0  0  0  0  0  0  0  0
   37.6016  -19.0898   36.2084 H   0  0  0  0  0  0  0  0  0  0  0  0
   36.1152  -21.4422   40.1677 C   0  0  0  0  0  0  0  0  0  0  0  0
   37.3271  -21.5213   39.5292 C   0  0  0  0  0  0  0  0  0  0  0  0
   37.6093  -20.7041   38.4258 C   0  0  0  0  0  0  0  0  0  0  0  0
   36.6679  -19.8086   37.9680 C   0  0  0  0  0  0  0  0  0  0  0  0
   35.4290  -19.7483   38.6449 C   0  0  0  0  0  0  0  0  0  0  0  0
   35.1623  -20.5546   39.7270 C   0  0  0  0  0  0  0  0  0  0  0  0
   35.8246  -23.6370   41.0948 C   0  0  0  0  0  0  0  0  0  0  0  0
   35.8616  -22.2535   41.2472 O   0  0  0  0  0  0  0  0  0  0  0  0
   35.7211  -14.2557   37.3999 C   0  0  0  0  0  0  0  0  0  0  0  0
   37.4368  -14.2459   37.8653 Cl  0  0  0  0  0  0  0  0  0  0  0  0
 18 19  1  0  0  0
 19 12  1  0  0  0
 12 13  2  0  0  0
 13 14  1  0  0  0
 14 15  2  0  0  0
 15 10  1  0  0  0
 10  1  1  0  0  0
  1  2  2  0  0  0
  2  3  1  0  0  0
  3  4  1  0  0  0
  3  5  2  0  0  0
  5  6  1  0  0  0
  6 20  1  0  0  0
 20 21  1  0  0  0
  6  7  2  0  0  0
 15 16  1  0  0  0
 16 17  2  0  0  0
 17 12  1  0  0  0
  7  1  1  0  0  0
 10 11  1  0  0  0
  4  8  1  0  0  0
  4  9  1  0  0  0
M  END
> <minimizedAffinity>
-4.59261

> <CNNscore>
0.3554037511

> <CNNaffinity>
3.9419906139

> <CNN_VS>
1.4009982347

> <CNNaffinity_variance>
0.3764232695

$$$$
[H]c1c([H])c(N([H])c2nc(N([H])[H])nc(C([H])([H])Cl)n2)c([H])c([H])c1OC([H])([H])[H]


 21 22  0  0  0  0  0  0  0  0999 V2000
   36.6071  -17.3082   35.6901 C   0  0  0  0  0  0  0  0  0  0  0  0
   35.3684  -17.5685   35.2580 N   0  0  0  0  0  0  0  0  0  0  0  0
   34.2798  -16.8339   35.4952 C   0  0  0  0  0  0  0  0  0  0  0  0
   32.9925  -17.1761   35.0001 N   0  0  0  0  0  0  0  0  0  0  0  0
   34.4268  -15.7065   36.2488 N   0  0  0  0  0  0  0  0  0  0  0  0
   35.6515  -15.3818   36.7192 C   0  0  0  0  0  0  0  0  0  0  0  0
   36.6987  -16.1618   36.4440 N   0  0  0  0  0  0  0  0  0  0  0  0
   32.9027  -17.8260   34.1910 H   0  0  0  0  0  0  0  0  0  0  0  0
   32.1385  -16.7801   35.4423 H   0  0  0  0  0  0  0  0  0  0  0  0
   37.7604  -18.0791   35.4434 N   0  0  0  0  0  0  0  0  0  0  0  0
   38.1323  -18.0229   34.4545 H   0  0  0  0  0  0  0  0  0  0  0  0
   39.4831  -20.6599   38.2528 C   0  0  0  0  0  0  0  0  0  0  0  0
   40.3112  -19.8417   37.5266 C   0  0  0  0  0  0  0  0  0  0  0  0
   39.7867  -18.9530   36.5780 C   0  0  0  0  0  0  0  0  0  0  0  0
   38.4274  -18.8914   36.3632 C   0  0  0  0  0  0  0  0  0  0  0  0
   37.5986  -19.7450   37.1255 C   0  0  0  0  0  0  0  0  0  0  0  0
   38.1235  -20.6135   38.0542 C   0  0  0  0  0  0  0  0  0  0  0  0
   39.8837  -21.2697   40.5395 C   0  0  0  0  0  0  0  0  0  0  0  0
   40.0204  -21.5229   39.1772 O   0  0  0  0  0  0  0  0  0  0  0  0
   35.8576  -14.1557   37.5486 C   0  0  0  0  0  0  0  0  0  0  0  0
   37.5807  -13.7192   37.5302 Cl  0  0  0  0  0  0  0  0  0  0  0  0
 18 19  1  0  0  0
 19 12  1  0  0  0
 12 13  2  0  0  0
 13 14  1  0  0  0
 14 15  2  0  0  0
 15 10  1  0  0  0
 10  1  1  0  0  0
  1  2  2  0  0  0
  2  3  1  0  0  0
  3  4  1  0  0  0
  3  5  2  0  0  0
  5  6  1  0  0  0
  6 20  1  0  0  0
 20 21  1  0  0  0
  6  7  2  0  0  0
 15 16  1  0  0  0
 16 17  2  0  0  0
 17 12  1  0  0  0
  7  1  1  0  0  0
 10 11  1  0  0  0
  4  8  1  0  0  0
  4  9  1  0  0  0
M  END
> <minimizedAffinity>
-5.04197

> <CNNscore>
0.3319649100

> <CNNaffinity>
4.0529952049

> <CNN_VS>
1.3454521894

> <CNNaffinity_variance>
0.5841199160

$$$$
[H]c1c([H])c(N([H])c2nc(N([H])[H])nc(C([H])([H])Cl)n2)c([H])c([H])c1OC([H])([H])[H]


 21 22  0  0  0  0  0  0  0  0999 V2000
   35.1451  -19.2968   34.2467 C   0  0  0  0  0  0  0  0  0  0  0  0
   36.2627  -19.0570   33.5523 N   0  0  0  0  0  0  0  0  0  0  0  0
   37.3112  -18.3434   33.9674 C   0  0  0  0  0  0  0  0  0  0  0  0
   38.4678  -18.1317   33.1693 N   0  0  0  0  0  0  0  0  0  0  0  0
   37.2541  -17.7996   35.2170 N   0  0  0  0  0  0  0  0  0  0  0  0
   36.1537  -18.0015   35.9753 C   0  0  0  0  0  0  0  0  0  0  0  0
   35.1400  -18.7262   35.4979 N   0  0  0  0  0  0  0  0  0  0  0  0
   38.6724  -18.7691   32.3712 H   0  0  0  0  0  0  0  0  0  0  0  0
   39.1117  -17.3423   33.3787 H   0  0  0  0  0  0  0  0  0  0  0  0
   34.0347  -20.0491   33.8148 N   0  0  0  0  0  0  0  0  0  0  0  0
   34.2150  -20.6722   32.9789 H   0  0  0  0  0  0  0  0  0  0  0  0
   30.2851  -20.2601   35.6631 C   0  0  0  0  0  0  0  0  0  0  0  0
   30.5599  -19.1745   34.8703 C   0  0  0  0  0  0  0  0  0  0  0  0
   31.7970  -19.0571   34.2217 C   0  0  0  0  0  0  0  0  0  0  0  0
   32.7551  -20.0351   34.3745 C   0  0  0  0  0  0  0  0  0  0  0  0
   32.4447  -21.1418   35.1963 C   0  0  0  0  0  0  0  0  0  0  0  0
   31.2273  -21.2475   35.8281 C   0  0  0  0  0  0  0  0  0  0  0  0
   28.7190  -21.5064   36.9881 C   0  0  0  0  0  0  0  0  0  0  0  0
   29.0653  -20.3532   36.2887 O   0  0  0  0  0  0  0  0  0  0  0  0
   36.0493  -17.4241   37.3498 C   0  0  0  0  0  0  0  0  0  0  0  0
   36.8467  -15.8355   37.3796 Cl  0  0  0  0  0  0  0  0  0  0  0  0
 18 19  1  0  0  0
 19 12  1  0  0  0
 12 13  2  0  0  0
 13 14  1  0  0  0
 14 15  2  0  0  0
 15 10  1  0  0  0
 10  1  1  0  0  0
  1  2  2  0  0  0
  2  3  1  0  0  0
  3  4  1  0  0  0
  3  5  2  0  0  0
  5  6  1  0  0  0
  6 20  1  0  0  0
 20 21  1  0  0  0
  6  7  2  0  0  0
 15 16  1  0  0  0
 16 17  2  0  0  0
 17 12  1  0  0  0
  7  1  1  0  0  0
 10 11  1  0  0  0
  4  8  1  0  0  0
  4  9  1  0  0  0
M  END
> <minimizedAffinity>
-5.29286

> <CNNscore>
0.3260276616

> <CNNaffinity>
4.1532335281

> <CNN_VS>
1.3540689945

> <CNNaffinity_variance>
0.6284010410

$$$$
[H]c1c([H])c(N([H])c2nc(N([H])[H])nc(C([H])([H])Cl)n2)c([H])c([H])c1OC([H])([H])[H]


 21 22  0  0  0  0  0  0  0  0999 V2000
   35.2972  -15.6233   36.3302 C   0  0  0  0  0  0  0  0  0  0  0  0
   34.1735  -16.0538   35.7464 N   0  0  0  0  0  0  0  0  0  0  0  0
   33.7849  -17.3247   35.6251 C   0  0  0  0  0  0  0  0  0  0  0  0
   32.5724  -17.7057   34.9893 N   0  0  0  0  0  0  0  0  0  0  0  0
   34.5999  -18.2895   36.1403 N   0  0  0  0  0  0  0  0  0  0  0  0
   35.7528  -17.9262   36.7448 C   0  0  0  0  0  0  0  0  0  0  0  0
   36.0811  -16.6358   36.8317 N   0  0  0  0  0  0  0  0  0  0  0  0
   31.8055  -17.0103   34.8734 H   0  0  0  0  0  0  0  0  0  0  0  0
   32.4470  -18.6767   34.6387 H   0  0  0  0  0  0  0  0  0  0  0  0
   35.7135  -14.2836   36.4619 N   0  0  0  0  0  0  0  0  0  0  0  0
   36.7246  -14.1030   36.2082 H   0  0  0  0  0  0  0  0  0  0  0  0
   33.5136  -10.8889   37.5376 C   0  0  0  0  0  0  0  0  0  0  0  0
   33.1627  -12.0944   38.0909 C   0  0  0  0  0  0  0  0  0  0  0  0
   33.8702  -13.2615   37.7712 C   0  0  0  0  0  0  0  0  0  0  0  0
   34.9305  -13.2104   36.8932 C   0  0  0  0  0  0  0  0  0  0  0  0
   35.2698  -11.9558   36.3390 C   0  0  0  0  0  0  0  0  0  0  0  0
   34.5690  -10.8163   36.6597 C   0  0  0  0  0  0  0  0  0  0  0  0
   32.7465   -8.6830   36.9838 C   0  0  0  0  0  0  0  0  0  0  0  0
   32.8051   -9.7585   37.8662 O   0  0  0  0  0  0  0  0  0  0  0  0
   36.6750  -18.9505   37.3228 C   0  0  0  0  0  0  0  0  0  0  0  0
   35.7401  -20.0780   38.3302 Cl  0  0  0  0  0  0  0  0  0  0  0  0
 18 19  1  0  0  0
 19 12  1  0  0  0
 12 13  2  0  0  0
 13 14  1  0  0  0
 14 15  2  0  0  0
 15 10  1  0  0  0
 10  1  1  0  0  0
  1  2  2  0  0  0
  2  3  1  0  0  0
  3  4  1  0  0  0
  3  5  2  0  0  0
  5  6  1  0  0  0
  6 20  1  0  0  0
 20 21  1  0  0  0
  6  7  2  0  0  0
 15 16  1  0  0  0
 16 17  2  0  0  0
 17 12  1  0  0  0
  7  1  1  0  0  0
 10 11  1  0  0  0
  4  8  1  0  0  0
  4  9  1  0  0  0
M  END
> <minimizedAffinity>
-5.68783

> <CNNscore>
0.3218150735

> <CNNaffinity>
4.4901800156

> <CNN_VS>
1.4450075626

> <CNNaffinity_variance>
0.2265799493

$$$$
[H]c1nc2sc3c(=O)n(C4([H])C([H])([H])C([H])([H])C([H])([H])C([H])([H])C4([H])[H])c([H])nc3c2c(N(C([H])([H])[H])C([H])([H])[H])c1[H]


 23 26  0  0  0  0  0  0  0  0999 V2000
   31.1573  -20.6145   35.7358 C   0  0  0  0  0  0  0  0  0  0  0  0
   29.8118  -20.5775   35.4295 C   0  0  0  0  0  0  0  0  0  0  0  0
   28.8416  -21.3218   36.0598 C   0  0  0  0  0  0  0  0  0  0  0  0
   29.2877  -22.1280   37.0377 N   0  0  0  0  0  0  0  0  0  0  0  0
   30.6132  -22.2045   37.3824 C   0  0  0  0  0  0  0  0  0  0  0  0
   31.4682  -23.1181   38.5427 S   0  0  0  0  0  0  0  0  0  0  0  0
   33.0461  -22.5588   38.2265 C   0  0  0  0  0  0  0  0  0  0  0  0
   34.3244  -22.8296   38.7524 C   0  0  0  0  0  0  0  0  0  0  0  0
   34.3463  -23.6672   39.6745 O   0  0  0  0  0  0  0  0  0  0  0  0
   35.4205  -22.2188   38.2794 N   0  0  0  0  0  0  0  0  0  0  0  0
   35.2222  -21.3423   37.2832 C   0  0  0  0  0  0  0  0  0  0  0  0
   34.0247  -21.0747   36.7756 N   0  0  0  0  0  0  0  0  0  0  0  0
   32.8638  -21.6619   37.2117 C   0  0  0  0  0  0  0  0  0  0  0  0
   31.5954  -21.4742   36.7694 C   0  0  0  0  0  0  0  0  0  0  0  0
   36.7101  -22.5233   38.8444 C   0  0  0  0  0  0  0  0  0  0  0  0
   37.5656  -23.3487   37.9156 C   0  0  0  0  0  0  0  0  0  0  0  0
   38.8232  -23.7132   38.6496 C   0  0  0  0  0  0  0  0  0  0  0  0
   38.9658  -23.0765   39.9847 C   0  0  0  0  0  0  0  0  0  0  0  0
   38.6317  -21.6194   40.0304 C   0  0  0  0  0  0  0  0  0  0  0  0
   37.5089  -21.2368   39.0942 C   0  0  0  0  0  0  0  0  0  0  0  0
   32.6768  -20.0862   33.7645 C   0  0  0  0  0  0  0  0  0  0  0  0
   32.0187  -19.7559   35.0104 N   0  0  0  0  0  0  0  0  0  0  0  0
   32.2588  -18.4372   35.5650 C   0  0  0  0  0  0  0  0  0  0  0  0
 21 22  1  0  0  0
 22 23  1  0  0  0
 22  1  1  0  0  0
  1  2  2  0  0  0
  2  3  1  0  0  0
  3  4  2  0  0  0
  4  5  1  0  0  0
  5  6  1  0  0  0
  6  7  1  0  0  0
  7  8  1  0  0  0
  8  9  2  0  0  0
  8 10  1  0  0  0
 10 15  1  0  0  0
 15 16  1  0  0  0
 16 17  1  0  0  0
 17 18  1  0  0  0
 18 19  1  0  0  0
 19 20  1  0  0  0
 10 11  1  0  0  0
 11 12  2  0  0  0
 12 13  1  0  0  0
 13 14  1  0  0  0
 14  1  1  0  0  0
 14  5  2  0  0  0
 13  7  2  0  0  0
 20 15  1  0  0  0
M  END
> <minimizedAffinity>
-3.80716

> <CNNscore>
0.5422002077

> <CNNaffinity>
4.5692548752

> <CNN_VS>
2.4774508476

> <CNNaffinity_variance>
0.3280311823

$$$$
[H]c1nc2sc3c(=O)n(C4([H])C([H])([H])C([H])([H])C([H])([H])C([H])([H])C4([H])[H])c([H])nc3c2c(N(C([H])([H])[H])C([H])([H])[H])c1[H]


 23 26  0  0  0  0  0  0  0  0999 V2000
   39.3159  -19.0058   34.3380 C   0  0  0  0  0  0  0  0  0  0  0  0
   38.3601  -18.3614   33.5786 C   0  0  0  0  0  0  0  0  0  0  0  0
   37.0557  -18.1575   33.9650 C   0  0  0  0  0  0  0  0  0  0  0  0
   36.7391  -18.6397   35.1786 N   0  0  0  0  0  0  0  0  0  0  0  0
   37.6489  -19.2884   35.9741 C   0  0  0  0  0  0  0  0  0  0  0  0
   37.5487  -20.0052   37.5194 S   0  0  0  0  0  0  0  0  0  0  0  0
   39.1521  -20.5609   37.6706 C   0  0  0  0  0  0  0  0  0  0  0  0
   39.8761  -21.2622   38.6545 C   0  0  0  0  0  0  0  0  0  0  0  0
   39.2248  -21.5583   39.6746 O   0  0  0  0  0  0  0  0  0  0  0  0
   41.1684  -21.5759   38.4831 N   0  0  0  0  0  0  0  0  0  0  0  0
   41.7210  -21.1825   37.3255 C   0  0  0  0  0  0  0  0  0  0  0  0
   41.0539  -20.5207   36.3873 N   0  0  0  0  0  0  0  0  0  0  0  0
   39.7325  -20.1677   36.4976 C   0  0  0  0  0  0  0  0  0  0  0  0
   38.9510  -19.5029   35.6104 C   0  0  0  0  0  0  0  0  0  0  0  0
   41.8739  -22.2941   39.5134 C   0  0  0  0  0  0  0  0  0  0  0  0
   42.7249  -23.4094   38.9587 C   0  0  0  0  0  0  0  0  0  0  0  0
   43.3070  -24.1649   40.1180 C   0  0  0  0  0  0  0  0  0  0  0  0
   43.0317  -23.5629   41.4485 C   0  0  0  0  0  0  0  0  0  0  0  0
   43.2240  -22.0817   41.5254 C   0  0  0  0  0  0  0  0  0  0  0  0
   42.8512  -21.3661   40.2478 C   0  0  0  0  0  0  0  0  0  0  0  0
   41.7138  -18.1920   34.0886 C   0  0  0  0  0  0  0  0  0  0  0  0
   40.6239  -19.1003   33.8034 N   0  0  0  0  0  0  0  0  0  0  0  0
   40.8894  -20.2000   32.8952 C   0  0  0  0  0  0  0  0  0  0  0  0
 21 22  1  0  0  0
 22 23  1  0  0  0
 22  1  1  0  0  0
  1  2  2  0  0  0
  2  3  1  0  0  0
  3  4  2  0  0  0
  4  5  1  0  0  0
  5  6  1  0  0  0
  6  7  1  0  0  0
  7  8  1  0  0  0
  8  9  2  0  0  0
  8 10  1  0  0  0
 10 15  1  0  0  0
 15 16  1  0  0  0
 16 17  1  0  0  0
 17 18  1  0  0  0
 18 19  1  0  0  0
 19 20  1  0  0  0
 10 11  1  0  0  0
 11 12  2  0  0  0
 12 13  1  0  0  0
 13 14  1  0  0  0
 14  1  1  0  0  0
 14  5  2  0  0  0
 13  7  2  0  0  0
 20 15  1  0  0  0
M  END
> <minimizedAffinity>
-3.58255

> <CNNscore>
0.4129499197

> <CNNaffinity>
4.6931409836

> <CNN_VS>
1.9380321503

> <CNNaffinity_variance>
0.0941198990

$$$$
[H]c1nc2sc3c(=O)n(C4([H])C([H])([H])C([H])([H])C([H])([H])C([H])([H])C4([H])[H])c([H])nc3c2c(N(C([H])([H])[H])C([H])([H])[H])c1[H]


 23 26  0  0  0  0  0  0  0  0999 V2000
   35.1210  -14.2590   36.8260 C   0  0  0  0  0  0  0  0  0  0  0  0
   35.9785  -13.2235   37.1388 C   0  0  0  0  0  0  0  0  0  0  0  0
   37.3206  -13.3674   37.4042 C   0  0  0  0  0  0  0  0  0  0  0  0
   37.7816  -14.6279   37.3418 N   0  0  0  0  0  0  0  0  0  0  0  0
   36.9739  -15.6937   37.0365 C   0  0  0  0  0  0  0  0  0  0  0  0
   37.2554  -17.3708   36.8948 S   0  0  0  0  0  0  0  0  0  0  0  0
   35.6786  -17.8835   36.5033 C   0  0  0  0  0  0  0  0  0  0  0  0
   35.0716  -19.1258   36.2346 C   0  0  0  0  0  0  0  0  0  0  0  0
   35.8398  -20.1058   36.2773 O   0  0  0  0  0  0  0  0  0  0  0  0
   33.7634  -19.2208   35.9562 N   0  0  0  0  0  0  0  0  0  0  0  0
   33.0776  -18.0676   35.9504 C   0  0  0  0  0  0  0  0  0  0  0  0
   33.6334  -16.8880   36.2011 N   0  0  0  0  0  0  0  0  0  0  0  0
   34.9636  -16.7189   36.4922 C   0  0  0  0  0  0  0  0  0  0  0  0
   35.6366  -15.5744   36.7694 C   0  0  0  0  0  0  0  0  0  0  0  0
   33.1803  -20.5102   35.6867 C   0  0  0  0  0  0  0  0  0  0  0  0
   32.3474  -21.0175   36.8377 C   0  0  0  0  0  0  0  0  0  0  0  0
   31.8992  -22.4106   36.5030 C   0  0  0  0  0  0  0  0  0  0  0  0
   32.2473  -22.8583   35.1295 C   0  0  0  0  0  0  0  0  0  0  0  0
   31.9846  -21.8559   34.0511 C   0  0  0  0  0  0  0  0  0  0  0  0
   32.2171  -20.4301   34.4944 C   0  0  0  0  0  0  0  0  0  0  0  0
   33.1596  -13.9488   35.2352 C   0  0  0  0  0  0  0  0  0  0  0  0
   33.7720  -13.9315   36.5464 N   0  0  0  0  0  0  0  0  0  0  0  0
   32.9380  -13.5477   37.6696 C   0  0  0  0  0  0  0  0  0  0  0  0
 21 22  1  0  0  0
 22 23  1  0  0  0
 22  1  1  0  0  0
  1  2  2  0  0  0
  2  3  1  0  0  0
  3  4  2  0  0  0
  4  5  1  0  0  0
  5  6  1  0  0  0
  6  7  1  0  0  0
  7  8  1  0  0  0
  8  9  2  0  0  0
  8 10  1  0  0  0
 10 15  1  0  0  0
 15 16  1  0  0  0
 16 17  1  0  0  0
 17 18  1  0  0  0
 18 19  1  0  0  0
 19 20  1  0  0  0
 10 11  1  0  0  0
 11 12  2  0  0  0
 12 13  1  0  0  0
 13 14  1  0  0  0
 14  1  1  0  0  0
 14  5  2  0  0  0
 13  7  2  0  0  0
 20 15  1  0  0  0
M  END
> <minimizedAffinity>
-4.86460

> <CNNscore>
0.3963614702

> <CNNaffinity>
5.3032960892

> <CNN_VS>
2.1020221710

> <CNNaffinity_variance>
0.0555521771

$$$$
[H]c1nc2sc3c(=O)n(C4([H])C([H])([H])C([H])([H])C([H])([H])C([H])([H])C4([H])[H])c([H])nc3c2c(N(C([H])([H])[H])C([H])([H])[H])c1[H]


 23 26  0  0  0  0  0  0  0  0999 V2000
   33.1541  -19.5055   35.6470 C   0  0  0  0  0  0  0  0  0  0  0  0
   32.7281  -18.2975   35.1326 C   0  0  0  0  0  0  0  0  0  0  0  0
   33.4275  -17.1159   35.2194 C   0  0  0  0  0  0  0  0  0  0  0  0
   34.6050  -17.1969   35.8613 N   0  0  0  0  0  0  0  0  0  0  0  0
   35.0758  -18.3708   36.3921 C   0  0  0  0  0  0  0  0  0  0  0  0
   36.4920  -18.7799   37.2517 S   0  0  0  0  0  0  0  0  0  0  0  0
   36.1951  -20.4391   37.4997 C   0  0  0  0  0  0  0  0  0  0  0  0
   36.8830  -21.4915   38.1347 C   0  0  0  0  0  0  0  0  0  0  0  0
   37.9760  -21.1741   38.6417 O   0  0  0  0  0  0  0  0  0  0  0  0
   36.3789  -22.7333   38.1770 N   0  0  0  0  0  0  0  0  0  0  0  0
   35.1892  -22.9061   37.5815 C   0  0  0  0  0  0  0  0  0  0  0  0
   34.5269  -21.9259   36.9782 N   0  0  0  0  0  0  0  0  0  0  0  0
   34.9840  -20.6346   36.8976 C   0  0  0  0  0  0  0  0  0  0  0  0
   34.3975  -19.5576   36.3182 C   0  0  0  0  0  0  0  0  0  0  0  0
   37.1136  -23.7825   38.8362 C   0  0  0  0  0  0  0  0  0  0  0  0
   36.4331  -24.2586   40.0956 C   0  0  0  0  0  0  0  0  0  0  0  0
   37.3408  -25.2508   40.7627 C   0  0  0  0  0  0  0  0  0  0  0  0
   38.5514  -25.6059   39.9774 C   0  0  0  0  0  0  0  0  0  0  0  0
   38.3081  -25.8786   38.5272 C   0  0  0  0  0  0  0  0  0  0  0  0
   37.2126  -25.0217   37.9362 C   0  0  0  0  0  0  0  0  0  0  0  0
   32.3747  -21.5101   34.2874 C   0  0  0  0  0  0  0  0  0  0  0  0
   32.3258  -20.6352   35.4392 N   0  0  0  0  0  0  0  0  0  0  0  0
   31.3489  -20.9374   36.4682 C   0  0  0  0  0  0  0  0  0  0  0  0
 21 22  1  0  0  0
 22 23  1  0  0  0
 22  1  1  0  0  0
  1  2  2  0  0  0
  2  3  1  0  0  0
  3  4  2  0  0  0
  4  5  1  0  0  0
  5  6  1  0  0  0
  6  7  1  0  0  0
  7  8  1  0  0  0
  8  9  2  0  0  0
  8 10  1  0  0  0
 10 15  1  0  0  0
 15 16  1  0  0  0
 16 17  1  0  0  0
 17 18  1  0  0  0
 18 19  1  0  0  0
 19 20  1  0  0  0
 10 11  1  0  0  0
 11 12  2  0  0  0
 12 13  1  0  0  0
 13 14  1  0  0  0
 14  1  1  0  0  0
 14  5  2  0  0  0
 13  7  2  0  0  0
 20 15  1  0  0  0
M  END
> <minimizedAffinity>
-3.54686

> <CNNscore>
0.3704578876

> <CNNaffinity>
4.4516692162

> <CNN_VS>
1.6491559744

> <CNNaffinity_variance>
0.1400807202

$$$$
[H]c1nc2sc3c(=O)n(C4([H])C([H])([H])C([H])([H])C([H])([H])C([H])([H])C4([H])[H])c([H])nc3c2c(N(C([H])([H])[H])C([H])([H])[H])c1[H]


 23 26  0  0  0  0  0  0  0  0999 V2000
   40.8367  -23.8674   38.9613 C   0  0  0  0  0  0  0  0  0  0  0  0
   41.8902  -24.6537   39.3824 C   0  0  0  0  0  0  0  0  0  0  0  0
   43.2128  -24.2762   39.3546 C   0  0  0  0  0  0  0  0  0  0  0  0
   43.4432  -23.0430   38.8736 N   0  0  0  0  0  0  0  0  0  0  0  0
   42.4343  -22.2204   38.4411 C   0  0  0  0  0  0  0  0  0  0  0  0
   42.4108  -20.6455   37.7844 S   0  0  0  0  0  0  0  0  0  0  0  0
   40.7330  -20.4707   37.5458 C   0  0  0  0  0  0  0  0  0  0  0  0
   39.8984  -19.4576   37.0349 C   0  0  0  0  0  0  0  0  0  0  0  0
   40.4909  -18.4256   36.6656 O   0  0  0  0  0  0  0  0  0  0  0  0
   38.5689  -19.6156   36.9618 N   0  0  0  0  0  0  0  0  0  0  0  0
   38.0905  -20.7891   37.4023 C   0  0  0  0  0  0  0  0  0  0  0  0
   38.8623  -21.7548   37.8871 N   0  0  0  0  0  0  0  0  0  0  0  0
   40.2272  -21.6597   37.9906 C   0  0  0  0  0  0  0  0  0  0  0  0
   41.1122  -22.5746   38.4590 C   0  0  0  0  0  0  0  0  0  0  0  0
   37.7497  -18.5553   36.4329 C   0  0  0  0  0  0  0  0  0  0  0  0
   37.2495  -18.8534   35.0412 C   0  0  0  0  0  0  0  0  0  0  0  0
   36.5218  -17.6385   34.5432 C   0  0  0  0  0  0  0  0  0  0  0  0
   36.3583  -16.5596   35.5519 C   0  0  0  0  0  0  0  0  0  0  0  0
   35.9236  -17.0200   36.9068 C   0  0  0  0  0  0  0  0  0  0  0  0
   36.4872  -18.3700   37.2858 C   0  0  0  0  0  0  0  0  0  0  0  0
   38.8245  -25.1465   38.0730 C   0  0  0  0  0  0  0  0  0  0  0  0
   39.5301  -24.3976   39.0908 N   0  0  0  0  0  0  0  0  0  0  0  0
   38.8453  -24.1695   40.3492 C   0  0  0  0  0  0  0  0  0  0  0  0
 21 22  1  0  0  0
 22 23  1  0  0  0
 22  1  1  0  0  0
  1  2  2  0  0  0
  2  3  1  0  0  0
  3  4  2  0  0  0
  4  5  1  0  0  0
  5  6  1  0  0  0
  6  7  1  0  0  0
  7  8  1  0  0  0
  8  9  2  0  0  0
  8 10  1  0  0  0
 10 15  1  0  0  0
 15 16  1  0  0  0
 16 17  1  0  0  0
 17 18  1  0  0  0
 18 19  1  0  0  0
 19 20  1  0  0  0
 10 11  1  0  0  0
 11 12  2  0  0  0
 12 13  1  0  0  0
 13 14  1  0  0  0
 14  1  1  0  0  0
 14  5  2  0  0  0
 13  7  2  0  0  0
 20 15  1  0  0  0
M  END
> <minimizedAffinity>
-3.52546

> <CNNscore>
0.3689109087

> <CNNaffinity>
4.5501022339

> <CNN_VS>
1.6785823107

> <CNNaffinity_variance>
0.2361778915

$$$$
[H]c1nc2sc3c(=O)n(C4([H])C([H])([H])C([H])([H])C([H])([H])C([H])([H])C4([H])[H])c([H])nc3c2c(N(C([H])([H])[H])C([H])([H])[H])c1[H]


 23 26  0  0  0  0  0  0  0  0999 V2000
   34.0771  -16.5915   35.6473 C   0  0  0  0  0  0  0  0  0  0  0  0
   33.4415  -15.3828   35.8477 C   0  0  0  0  0  0  0  0  0  0  0  0
   34.0136  -14.2835   36.4451 C   0  0  0  0  0  0  0  0  0  0  0  0
   35.2855  -14.4500   36.8449 N   0  0  0  0  0  0  0  0  0  0  0  0
   35.9642  -15.6293   36.6714 C   0  0  0  0  0  0  0  0  0  0  0  0
   37.5425  -16.1394   37.0722 S   0  0  0  0  0  0  0  0  0  0  0  0
   37.4733  -17.7377   36.4865 C   0  0  0  0  0  0  0  0  0  0  0  0
   38.3694  -18.8236   36.4425 C   0  0  0  0  0  0  0  0  0  0  0  0
   39.4923  -18.5981   36.9330 O   0  0  0  0  0  0  0  0  0  0  0  0
   38.0170  -20.0016   35.9075 N   0  0  0  0  0  0  0  0  0  0  0  0
   36.7686  -20.0777   35.4221 C   0  0  0  0  0  0  0  0  0  0  0  0
   35.9109  -19.0645   35.4550 N   0  0  0  0  0  0  0  0  0  0  0  0
   36.2052  -17.8340   35.9861 C   0  0  0  0  0  0  0  0  0  0  0  0
   35.4154  -16.7354   36.0805 C   0  0  0  0  0  0  0  0  0  0  0  0
   38.9627  -21.0879   35.8816 C   0  0  0  0  0  0  0  0  0  0  0  0
   38.5100  -22.2656   36.7086 C   0  0  0  0  0  0  0  0  0  0  0  0
   39.6189  -23.2774   36.7150 C   0  0  0  0  0  0  0  0  0  0  0  0
   40.7640  -22.9446   35.8282 C   0  0  0  0  0  0  0  0  0  0  0  0
   40.3885  -22.4576   34.4649 C   0  0  0  0  0  0  0  0  0  0  0  0
   39.1227  -21.6323   34.4555 C   0  0  0  0  0  0  0  0  0  0  0  0
   33.3704  -17.8611   33.5585 C   0  0  0  0  0  0  0  0  0  0  0  0
   33.3524  -17.6114   34.9839 N   0  0  0  0  0  0  0  0  0  0  0  0
   32.5248  -18.4754   35.8043 C   0  0  0  0  0  0  0  0  0  0  0  0
 21 22  1  0  0  0
 22 23  1  0  0  0
 22  1  1  0  0  0
  1  2  2  0  0  0
  2  3  1  0  0  0
  3  4  2  0  0  0
  4  5  1  0  0  0
  5  6  1  0  0  0
  6  7  1  0  0  0
  7  8  1  0  0  0
  8  9  2  0  0  0
  8 10  1  0  0  0
 10 15  1  0  0  0
 15 16  1  0  0  0
 16 17  1  0  0  0
 17 18  1  0  0  0
 18 19  1  0  0  0
 19 20  1  0  0  0
 10 11  1  0  0  0
 11 12  2  0  0  0
 12 13  1  0  0  0
 13 14  1  0  0  0
 14  1  1  0  0  0
 14  5  2  0  0  0
 13  7  2  0  0  0
 20 15  1  0  0  0
M  END
> <minimizedAffinity>
-3.75843

> <CNNscore>
0.3245778978

> <CNNaffinity>
5.0073294640

> <CNN_VS>
1.6252684593

> <CNNaffinity_variance>
0.0691259131

$$$$
[H]c1nc2sc3c(=O)n(C4([H])C([H])([H])C([H])([H])C([H])([H])C([H])([H])C4([H])[H])c([H])nc3c2c(N(C([H])([H])[H])C([H])([H])[H])c1[H]


 23 26  0  0  0  0  0  0  0  0999 V2000
   39.5389  -22.6615   39.6372 C   0  0  0  0  0  0  0  0  0  0  0  0
   39.9421  -23.6773   40.4804 C   0  0  0  0  0  0  0  0  0  0  0  0
   39.1099  -24.3737   41.3260 C   0  0  0  0  0  0  0  0  0  0  0  0
   37.8199  -23.9995   41.2911 N   0  0  0  0  0  0  0  0  0  0  0  0
   37.3654  -22.9965   40.4733 C   0  0  0  0  0  0  0  0  0  0  0  0
   35.8272  -22.3031   40.2183 S   0  0  0  0  0  0  0  0  0  0  0  0
   36.2407  -21.1364   39.0477 C   0  0  0  0  0  0  0  0  0  0  0  0
   35.5358  -20.1513   38.3290 C   0  0  0  0  0  0  0  0  0  0  0  0
   34.3160  -20.0930   38.5758 O   0  0  0  0  0  0  0  0  0  0  0  0
   36.1536  -19.3485   37.4503 N   0  0  0  0  0  0  0  0  0  0  0  0
   37.4728  -19.5428   37.3021 C   0  0  0  0  0  0  0  0  0  0  0  0
   38.1530  -20.4665   37.9709 N   0  0  0  0  0  0  0  0  0  0  0  0
   37.5848  -21.3200   38.8827 C   0  0  0  0  0  0  0  0  0  0  0  0
   38.1746  -22.2902   39.6247 C   0  0  0  0  0  0  0  0  0  0  0  0
   35.3970  -18.3530   36.7349 C   0  0  0  0  0  0  0  0  0  0  0  0
   36.0690  -17.0025   36.7436 C   0  0  0  0  0  0  0  0  0  0  0  0
   35.1409  -16.0218   36.0877 C   0  0  0  0  0  0  0  0  0  0  0  0
   33.9213  -16.6282   35.4932 C   0  0  0  0  0  0  0  0  0  0  0  0
   34.1561  -17.8733   34.6988 C   0  0  0  0  0  0  0  0  0  0  0  0
   35.2692  -18.7320   35.2531 C   0  0  0  0  0  0  0  0  0  0  0  0
   41.2909  -20.8883   39.1263 C   0  0  0  0  0  0  0  0  0  0  0  0
   40.5212  -22.0712   38.8053 N   0  0  0  0  0  0  0  0  0  0  0  0
   40.7741  -22.7075   37.5264 C   0  0  0  0  0  0  0  0  0  0  0  0
 21 22  1  0  0  0
 22 23  1  0  0  0
 22  1  1  0  0  0
  1  2  2  0  0  0
  2  3  1  0  0  0
  3  4  2  0  0  0
  4  5  1  0  0  0
  5  6  1  0  0  0
  6  7  1  0  0  0
  7  8  1  0  0  0
  8  9  2  0  0  0
  8 10  1  0  0  0
 10 15  1  0  0  0
 15 16  1  0  0  0
 16 17  1  0  0  0
 17 18  1  0  0  0
 18 19  1  0  0  0
 19 20  1  0  0  0
 10 11  1  0  0  0
 11 12  2  0  0  0
 12 13  1  0  0  0
 13 14  1  0  0  0
 14  1  1  0  0  0
 14  5  2  0  0  0
 13  7  2  0  0  0
 20 15  1  0  0  0
M  END
> <minimizedAffinity>
-4.02367

> <CNNscore>
0.2991598248

> <CNNaffinity>
4.4990892410

> <CNN_VS>
1.3459467888

> <CNNaffinity_variance>
0.4225080609

$$$$
[H]c1nc2sc3c(=O)n(C4([H])C([H])([H])C([H])([H])C([H])([H])C([H])([H])C4([H])[H])c([H])nc3c2c(N(C([H])([H])[H])C([H])([H])[H])c1[H]


 23 26  0  0  0  0  0  0  0  0999 V2000
   35.1326  -16.2579   36.2541 C   0  0  0  0  0  0  0  0  0  0  0  0
   36.2598  -15.5062   36.5180 C   0  0  0  0  0  0  0  0  0  0  0  0
   37.4607  -16.0168   36.9534 C   0  0  0  0  0  0  0  0  0  0  0  0
   37.4866  -17.3500   37.1183 N   0  0  0  0  0  0  0  0  0  0  0  0
   36.3959  -18.1443   36.8716 C   0  0  0  0  0  0  0  0  0  0  0  0
   36.1213  -19.8240   36.9952 S   0  0  0  0  0  0  0  0  0  0  0  0
   34.4922  -19.8748   36.4991 C   0  0  0  0  0  0  0  0  0  0  0  0
   33.5306  -20.8909   36.3357 C   0  0  0  0  0  0  0  0  0  0  0  0
   33.9311  -22.0406   36.6008 O   0  0  0  0  0  0  0  0  0  0  0  0
   32.2842  -20.6165   35.9243 N   0  0  0  0  0  0  0  0  0  0  0  0
   32.0157  -19.3247   35.6811 C   0  0  0  0  0  0  0  0  0  0  0  0
   32.9097  -18.3541   35.8296 N   0  0  0  0  0  0  0  0  0  0  0  0
   34.2002  -18.5641   36.2458 C   0  0  0  0  0  0  0  0  0  0  0  0
   35.1916  -17.6586   36.4385 C   0  0  0  0  0  0  0  0  0  0  0  0
   31.3297  -21.6843   35.7694 C   0  0  0  0  0  0  0  0  0  0  0  0
   29.9199  -21.1761   35.5966 C   0  0  0  0  0  0  0  0  0  0  0  0
   29.0017  -22.3634   35.5744 C   0  0  0  0  0  0  0  0  0  0  0  0
   29.6928  -23.6789   35.5784 C   0  0  0  0  0  0  0  0  0  0  0  0
   30.8545  -23.7868   34.6427 C   0  0  0  0  0  0  0  0  0  0  0  0
   31.6260  -22.4952   34.5005 C   0  0  0  0  0  0  0  0  0  0  0  0
   33.2889  -15.8675   34.5444 C   0  0  0  0  0  0  0  0  0  0  0  0
   33.9861  -15.5760   35.7788 N   0  0  0  0  0  0  0  0  0  0  0  0
   33.4707  -14.4967   36.5996 C   0  0  0  0  0  0  0  0  0  0  0  0
 21 22  1  0  0  0
 22 23  1  0  0  0
 22  1  1  0  0  0
  1  2  2  0  0  0
  2  3  1  0  0  0
  3  4  2  0  0  0
  4  5  1  0  0  0
  5  6  1  0  0  0
  6  7  1  0  0  0
  7  8  1  0  0  0
  8  9  2  0  0  0
  8 10  1  0  0  0
 10 15  1  0  0  0
 15 16  1  0  0  0
 16 17  1  0  0  0
 17 18  1  0  0  0
 18 19  1  0  0  0
 19 20  1  0  0  0
 10 11  1  0  0  0
 11 12  2  0  0  0
 12 13  1  0  0  0
 13 14  1  0  0  0
 14  1  1  0  0  0
 14  5  2  0  0  0
 13  7  2  0  0  0
 20 15  1  0  0  0
M  END
> <minimizedAffinity>
-4.33893

> <CNNscore>
0.2838650644

> <CNNaffinity>
4.9381704330

> <CNN_VS>
1.4017740488

> <CNNaffinity_variance>
0.0378271863

$$$$
[H]c1nc2sc3c(=O)n(C4([H])C([H])([H])C([H])([H])C([H])([H])C([H])([H])C4([H])[H])c([H])nc3c2c(N(C([H])([H])[H])C([H])([H])[H])c1[H]


 23 26  0  0  0  0  0  0  0  0999 V2000
   32.6401  -18.9742   35.2795 C   0  0  0  0  0  0  0  0  0  0  0  0
   31.4113  -18.8398   34.6652 C   0  0  0  0  0  0  0  0  0  0  0  0
   30.3291  -19.6603   34.8846 C   0  0  0  0  0  0  0  0  0  0  0  0
   30.5347  -20.6496   35.7703 N   0  0  0  0  0  0  0  0  0  0  0  0
   31.7353  -20.8294   36.4087 C   0  0  0  0  0  0  0  0  0  0  0  0
   32.2941  -21.9707   37.5476 S   0  0  0  0  0  0  0  0  0  0  0  0
   33.8910  -21.4093   37.7407 C   0  0  0  0  0  0  0  0  0  0  0  0
   35.0047  -21.8126   38.5028 C   0  0  0  0  0  0  0  0  0  0  0  0
   34.8136  -22.8095   39.2253 O   0  0  0  0  0  0  0  0  0  0  0  0
   36.1725  -21.1566   38.4384 N   0  0  0  0  0  0  0  0  0  0  0  0
   36.2103  -20.1023   37.6095 C   0  0  0  0  0  0  0  0  0  0  0  0
   35.1704  -19.7080   36.8840 N   0  0  0  0  0  0  0  0  0  0  0  0
   33.9485  -20.3319   36.9019 C   0  0  0  0  0  0  0  0  0  0  0  0
   32.8251  -20.0263   36.2059 C   0  0  0  0  0  0  0  0  0  0  0  0
   37.2883  -21.6007   39.2340 C   0  0  0  0  0  0  0  0  0  0  0  0
   38.5875  -20.9606   38.8121 C   0  0  0  0  0  0  0  0  0  0  0  0
   39.6912  -21.5864   39.6144 C   0  0  0  0  0  0  0  0  0  0  0  0
   39.2312  -22.5236   40.6719 C   0  0  0  0  0  0  0  0  0  0  0  0
   38.0794  -22.0367   41.4923 C   0  0  0  0  0  0  0  0  0  0  0  0
   37.0983  -21.2007   40.7035 C   0  0  0  0  0  0  0  0  0  0  0  0
   33.7744  -16.7160   35.5769 C   0  0  0  0  0  0  0  0  0  0  0  0
   33.6383  -18.0203   34.9647 N   0  0  0  0  0  0  0  0  0  0  0  0
   34.6026  -18.3842   33.9438 C   0  0  0  0  0  0  0  0  0  0  0  0
 21 22  1  0  0  0
 22 23  1  0  0  0
 22  1  1  0  0  0
  1  2  2  0  0  0
  2  3  1  0  0  0
  3  4  2  0  0  0
  4  5  1  0  0  0
  5  6  1  0  0  0
  6  7  1  0  0  0
  7  8  1  0  0  0
  8  9  2  0  0  0
  8 10  1  0  0  0
 10 15  1  0  0  0
 15 16  1  0  0  0
 16 17  1  0  0  0
 17 18  1  0  0  0
 18 19  1  0  0  0
 19 20  1  0  0  0
 10 11  1  0  0  0
 11 12  2  0  0  0
 12 13  1  0  0  0
 13 14  1  0  0  0
 14  1  1  0  0  0
 14  5  2  0  0  0
 13  7  2  0  0  0
 20 15  1  0  0  0
M  END
> <minimizedAffinity>
-4.48514

> <CNNscore>
0.2792947888

> <CNNaffinity>
4.4812588692

> <CNN_VS>
1.2515922785

> <CNNaffinity_variance>
0.5382177234

$$$$
[H]c1c([H])c(-c2c(C([H])([H])C([H])([H])[H])c(C3=NC4(C(=O)N3[H])C([H])([H])C([H])([H])C4([H])[H])nn2-c2c([H])c([H])c(Cl)c([H])c2Cl)c([H])c([H])c1Cl


 32 36  0  0  0  0  0  0  0  0999 V2000
   36.1184  -21.3065   38.3144 C   0  0  0  0  0  0  0  0  0  0  0  0
   35.2784  -22.0868   37.5794 C   0  0  0  0  0  0  0  0  0  0  0  0
   36.1231  -22.9805   36.9733 N   0  0  0  0  0  0  0  0  0  0  0  0
   37.3826  -22.7730   37.3097 N   0  0  0  0  0  0  0  0  0  0  0  0
   37.4485  -21.7445   38.1486 C   0  0  0  0  0  0  0  0  0  0  0  0
   33.8355  -22.1295   37.4132 C   0  0  0  0  0  0  0  0  0  0  0  0
   33.1575  -23.2652   37.5808 N   0  0  0  0  0  0  0  0  0  0  0  0
   31.7682  -23.0931   37.3737 C   0  0  0  0  0  0  0  0  0  0  0  0
   30.8558  -23.6093   38.4634 C   0  0  0  0  0  0  0  0  0  0  0  0
   30.4927  -24.7599   37.5732 C   0  0  0  0  0  0  0  0  0  0  0  0
   31.1026  -24.0327   36.3985 C   0  0  0  0  0  0  0  0  0  0  0  0
   31.5646  -21.6655   37.0840 C   0  0  0  0  0  0  0  0  0  0  0  0
   30.5175  -21.0187   36.8618 O   0  0  0  0  0  0  0  0  0  0  0  0
   32.9148  -21.1220   37.1095 N   0  0  0  0  0  0  0  0  0  0  0  0
   33.0653  -20.1093   36.9211 H   0  0  0  0  0  0  0  0  0  0  0  0
   38.4758  -23.5600   36.8348 C   0  0  0  0  0  0  0  0  0  0  0  0
   38.9244  -24.7145   37.4709 C   0  0  0  0  0  0  0  0  0  0  0  0
   39.9959  -25.4268   36.9963 C   0  0  0  0  0  0  0  0  0  0  0  0
   40.6587  -25.0164   35.8732 C   0  0  0  0  0  0  0  0  0  0  0  0
   42.0338  -25.8789   35.2125 Cl  0  0  0  0  0  0  0  0  0  0  0  0
   40.2450  -23.8828   35.2207 C   0  0  0  0  0  0  0  0  0  0  0  0
   39.1465  -23.1579   35.7135 C   0  0  0  0  0  0  0  0  0  0  0  0
   38.6968  -21.6883   34.8512 Cl  0  0  0  0  0  0  0  0  0  0  0  0
   38.5769  -21.2575   38.9159 C   0  0  0  0  0  0  0  0  0  0  0  0
   39.6166  -20.6045   38.3098 C   0  0  0  0  0  0  0  0  0  0  0  0
   40.7544  -20.2472   39.0218 C   0  0  0  0  0  0  0  0  0  0  0  0
   40.8958  -20.5271   40.3615 C   0  0  0  0  0  0  0  0  0  0  0  0
   42.3233  -20.0823   41.2735 Cl  0  0  0  0  0  0  0  0  0  0  0  0
   39.8558  -21.1847   40.9839 C   0  0  0  0  0  0  0  0  0  0  0  0
   38.7315  -21.5345   40.2615 C   0  0  0  0  0  0  0  0  0  0  0  0
   35.1392  -20.5746   40.4542 C   0  0  0  0  0  0  0  0  0  0  0  0
   35.6584  -20.0935   39.0660 C   0  0  0  0  0  0  0  0  0  0  0  0
 31 32  1  0  0  0
 32  1  1  0  0  0
  1  2  1  0  0  0
  2  6  1  0  0  0
  6  7  2  0  0  0
  7  8  1  0  0  0
  8  9  1  0  0  0
  9 10  1  0  0  0
 10 11  1  0  0  0
  8 12  1  0  0  0
 12 13  2  0  0  0
 12 14  1  0  0  0
  2  3  2  0  0  0
  3  4  1  0  0  0
  4 16  1  0  0  0
 16 17  2  0  0  0
 17 18  1  0  0  0
 18 19  2  0  0  0
 19 20  1  0  0  0
 19 21  1  0  0  0
 21 22  2  0  0  0
 22 23  1  0  0  0
  4  5  1  0  0  0
  5 24  1  0  0  0
 24 25  2  0  0  0
 25 26  1  0  0  0
 26 27  2  0  0  0
 27 28  1  0  0  0
 27 29  1  0  0  0
 29 30  2  0  0  0
  5  1  2  0  0  0
 30 24  1  0  0  0
 14  6  1  0  0  0
 22 16  1  0  0  0
 11  8  1  0  0  0
 14 15  1  0  0  0
M  END
> <minimizedAffinity>
-3.62705

> <CNNscore>
0.4463847876

> <CNNaffinity>
5.8486471176

> <CNN_VS>
2.6107470989

> <CNNaffinity_variance>
0.5306865573

$$$$
[H]c1c([H])c(-c2c(C([H])([H])C([H])([H])[H])c(C3=NC4(C(=O)N3[H])C([H])([H])C([H])([H])C4([H])[H])nn2-c2c([H])c([H])c(Cl)c([H])c2Cl)c([H])c([H])c1Cl


 32 36  0  0  0  0  0  0  0  0999 V2000
   37.1331  -18.8730   35.8328 C   0  0  0  0  0  0  0  0  0  0  0  0
   38.1793  -18.2119   36.4011 C   0  0  0  0  0  0  0  0  0  0  0  0
   37.6481  -16.9884   36.7182 N   0  0  0  0  0  0  0  0  0  0  0  0
   36.3755  -16.9015   36.3782 N   0  0  0  0  0  0  0  0  0  0  0  0
   35.9907  -18.0463   35.8241 C   0  0  0  0  0  0  0  0  0  0  0  0
   39.5494  -18.5809   36.7143 C   0  0  0  0  0  0  0  0  0  0  0  0
   39.8176  -19.5395   37.6013 N   0  0  0  0  0  0  0  0  0  0  0  0
   41.2087  -19.7446   37.7614 C   0  0  0  0  0  0  0  0  0  0  0  0
   41.6979  -21.1698   37.6374 C   0  0  0  0  0  0  0  0  0  0  0  0
   41.8738  -21.2076   39.1260 C   0  0  0  0  0  0  0  0  0  0  0  0
   41.7461  -19.7035   39.1709 C   0  0  0  0  0  0  0  0  0  0  0  0
   41.8750  -18.8262   36.8255 C   0  0  0  0  0  0  0  0  0  0  0  0
   43.0881  -18.6541   36.5749 O   0  0  0  0  0  0  0  0  0  0  0  0
   40.7662  -18.1116   36.2099 N   0  0  0  0  0  0  0  0  0  0  0  0
   40.9595  -17.3762   35.4989 H   0  0  0  0  0  0  0  0  0  0  0  0
   35.5676  -15.7445   36.5987 C   0  0  0  0  0  0  0  0  0  0  0  0
   34.2652  -15.6154   36.1236 C   0  0  0  0  0  0  0  0  0  0  0  0
   33.5326  -14.4754   36.3345 C   0  0  0  0  0  0  0  0  0  0  0  0
   34.0689  -13.4243   37.0249 C   0  0  0  0  0  0  0  0  0  0  0  0
   33.1891  -11.9399   37.3308 Cl  0  0  0  0  0  0  0  0  0  0  0  0
   35.3500  -13.5159   37.5072 C   0  0  0  0  0  0  0  0  0  0  0  0
   36.0946  -14.6871   37.2865 C   0  0  0  0  0  0  0  0  0  0  0  0
   37.7478  -14.7194   37.8959 Cl  0  0  0  0  0  0  0  0  0  0  0  0
   34.6600  -18.4855   35.4559 C   0  0  0  0  0  0  0  0  0  0  0  0
   34.1068  -18.1372   34.2528 C   0  0  0  0  0  0  0  0  0  0  0  0
   32.7882  -18.4514   33.9497 C   0  0  0  0  0  0  0  0  0  0  0  0
   31.9757  -19.1237   34.8334 C   0  0  0  0  0  0  0  0  0  0  0  0
   30.3118  -19.5283   34.4657 Cl  0  0  0  0  0  0  0  0  0  0  0  0
   32.5206  -19.4800   36.0488 C   0  0  0  0  0  0  0  0  0  0  0  0
   33.8332  -19.1588   36.3358 C   0  0  0  0  0  0  0  0  0  0  0  0
   38.0511  -20.0510   33.8725 C   0  0  0  0  0  0  0  0  0  0  0  0
   37.2664  -20.2288   35.2070 C   0  0  0  0  0  0  0  0  0  0  0  0
 31 32  1  0  0  0
 32  1  1  0  0  0
  1  2  1  0  0  0
  2  6  1  0  0  0
  6  7  2  0  0  0
  7  8  1  0  0  0
  8  9  1  0  0  0
  9 10  1  0  0  0
 10 11  1  0  0  0
  8 12  1  0  0  0
 12 13  2  0  0  0
 12 14  1  0  0  0
  2  3  2  0  0  0
  3  4  1  0  0  0
  4 16  1  0  0  0
 16 17  2  0  0  0
 17 18  1  0  0  0
 18 19  2  0  0  0
 19 20  1  0  0  0
 19 21  1  0  0  0
 21 22  2  0  0  0
 22 23  1  0  0  0
  4  5  1  0  0  0
  5 24  1  0  0  0
 24 25  2  0  0  0
 25 26  1  0  0  0
 26 27  2  0  0  0
 27 28  1  0  0  0
 27 29  1  0  0  0
 29 30  2  0  0  0
  5  1  2  0  0  0
 30 24  1  0  0  0
 14  6  1  0  0  0
 22 16  1  0  0  0
 11  8  1  0  0  0
 14 15  1  0  0  0
M  END
> <minimizedAffinity>
-7.22821

> <CNNscore>
0.4005446732

> <CNNaffinity>
6.3456058502

> <CNN_VS>
2.5416986942

> <CNNaffinity_variance>
0.2304983139

$$$$
[H]c1c([H])c(-c2c(C([H])([H])C([H])([H])[H])c(C3=NC4(C(=O)N3[H])C([H])([H])C([H])([H])C4([H])[H])nn2-c2c([H])c([H])c(Cl)c([H])c2Cl)c([H])c([H])c1Cl


 32 36  0  0  0  0  0  0  0  0999 V2000
   38.0397  -22.0497   36.6645 C   0  0  0  0  0  0  0  0  0  0  0  0
   37.3092  -20.9648   37.0437 C   0  0  0  0  0  0  0  0  0  0  0  0
   38.1947  -20.2294   37.7884 N   0  0  0  0  0  0  0  0  0  0  0  0
   39.3782  -20.8097   37.8600 N   0  0  0  0  0  0  0  0  0  0  0  0
   39.3501  -21.9485   37.1757 C   0  0  0  0  0  0  0  0  0  0  0  0
   35.9520  -20.5230   36.7710 C   0  0  0  0  0  0  0  0  0  0  0  0
   35.6933  -19.6676   35.7815 N   0  0  0  0  0  0  0  0  0  0  0  0
   34.3141  -19.3659   35.6837 C   0  0  0  0  0  0  0  0  0  0  0  0
   33.6874  -19.5158   34.3159 C   0  0  0  0  0  0  0  0  0  0  0  0
   33.6670  -18.0214   34.1941 C   0  0  0  0  0  0  0  0  0  0  0  0
   33.9345  -17.9055   35.6759 C   0  0  0  0  0  0  0  0  0  0  0  0
   33.6387  -20.1683   36.7148 C   0  0  0  0  0  0  0  0  0  0  0  0
   32.4265  -20.2724   37.0044 O   0  0  0  0  0  0  0  0  0  0  0  0
   34.7364  -20.8616   37.3732 N   0  0  0  0  0  0  0  0  0  0  0  0
   34.5365  -21.5037   38.1678 H   0  0  0  0  0  0  0  0  0  0  0  0
   40.4945  -20.2624   38.5631 C   0  0  0  0  0  0  0  0  0  0  0  0
   41.4655  -19.4661   37.9618 C   0  0  0  0  0  0  0  0  0  0  0  0
   42.5371  -18.9824   38.6678 C   0  0  0  0  0  0  0  0  0  0  0  0
   42.6808  -19.2734   39.9959 C   0  0  0  0  0  0  0  0  0  0  0  0
   44.0241  -18.6881   40.9573 Cl  0  0  0  0  0  0  0  0  0  0  0  0
   41.7436  -20.0559   40.6214 C   0  0  0  0  0  0  0  0  0  0  0  0
   40.6486  -20.5483   39.8910 C   0  0  0  0  0  0  0  0  0  0  0  0
   39.5069  -21.5826   40.7469 Cl  0  0  0  0  0  0  0  0  0  0  0  0
   40.4412  -22.8346   36.8242 C   0  0  0  0  0  0  0  0  0  0  0  0
   41.0925  -22.7153   35.6258 C   0  0  0  0  0  0  0  0  0  0  0  0
   42.0533  -23.6389   35.2343 C   0  0  0  0  0  0  0  0  0  0  0  0
   42.3989  -24.7122   36.0228 C   0  0  0  0  0  0  0  0  0  0  0  0
   43.6088  -25.8845   35.5441 Cl  0  0  0  0  0  0  0  0  0  0  0  0
   41.7501  -24.8440   37.2323 C   0  0  0  0  0  0  0  0  0  0  0  0
   40.7959  -23.9178   37.6065 C   0  0  0  0  0  0  0  0  0  0  0  0
   37.0625  -24.2897   36.9819 C   0  0  0  0  0  0  0  0  0  0  0  0
   37.4509  -23.2130   35.9244 C   0  0  0  0  0  0  0  0  0  0  0  0
 31 32  1  0  0  0
 32  1  1  0  0  0
  1  2  1  0  0  0
  2  6  1  0  0  0
  6  7  2  0  0  0
  7  8  1  0  0  0
  8  9  1  0  0  0
  9 10  1  0  0  0
 10 11  1  0  0  0
  8 12  1  0  0  0
 12 13  2  0  0  0
 12 14  1  0  0  0
  2  3  2  0  0  0
  3  4  1  0  0  0
  4 16  1  0  0  0
 16 17  2  0  0  0
 17 18  1  0  0  0
 18 19  2  0  0  0
 19 20  1  0  0  0
 19 21  1  0  0  0
 21 22  2  0  0  0
 22 23  1  0  0  0
  4  5  1  0  0  0
  5 24  1  0  0  0
 24 25  2  0  0  0
 25 26  1  0  0  0
 26 27  2  0  0  0
 27 28  1  0  0  0
 27 29  1  0  0  0
 29 30  2  0  0  0
  5  1  2  0  0  0
 30 24  1  0  0  0
 14  6  1  0  0  0
 22 16  1  0  0  0
 11  8  1  0  0  0
 14 15  1  0  0  0
M  END
> <minimizedAffinity>
-3.86417

> <CNNscore>
0.3941878080

> <CNNaffinity>
6.0992784500

> <CNN_VS>
2.4042611122

> <CNNaffinity_variance>
0.3187094629

$$$$
[H]c1c([H])c(-c2c(C([H])([H])C([H])([H])[H])c(C3=NC4(C(=O)N3[H])C([H])([H])C([H])([H])C4([H])[H])nn2-c2c([H])c([H])c(Cl)c([H])c2Cl)c([H])c([H])c1Cl


 32 36  0  0  0  0  0  0  0  0999 V2000
   32.7173  -19.8435   36.0019 C   0  0  0  0  0  0  0  0  0  0  0  0
   33.7403  -19.0453   36.4153 C   0  0  0  0  0  0  0  0  0  0  0  0
   34.6094  -19.9238   37.0091 N   0  0  0  0  0  0  0  0  0  0  0  0
   34.1626  -21.1651   36.9625 N   0  0  0  0  0  0  0  0  0  0  0  0
   32.9874  -21.1850   36.3426 C   0  0  0  0  0  0  0  0  0  0  0  0
   34.0190  -17.6247   36.2905 C   0  0  0  0  0  0  0  0  0  0  0  0
   35.2005  -17.1217   36.6492 N   0  0  0  0  0  0  0  0  0  0  0  0
   35.2679  -15.7223   36.4494 C   0  0  0  0  0  0  0  0  0  0  0  0
   36.4597  -15.2096   35.6729 C   0  0  0  0  0  0  0  0  0  0  0  0
   37.0420  -14.7034   36.9585 C   0  0  0  0  0  0  0  0  0  0  0  0
   35.7006  -14.8854   37.6281 C   0  0  0  0  0  0  0  0  0  0  0  0
   33.9825  -15.3246   35.8555 C   0  0  0  0  0  0  0  0  0  0  0  0
   33.5707  -14.2074   35.4728 O   0  0  0  0  0  0  0  0  0  0  0  0
   33.2378  -16.5741   35.7993 N   0  0  0  0  0  0  0  0  0  0  0  0
   32.2676  -16.5783   35.4220 H   0  0  0  0  0  0  0  0  0  0  0  0
   34.8667  -22.2875   37.4958 C   0  0  0  0  0  0  0  0  0  0  0  0
   35.7636  -23.0536   36.7561 C   0  0  0  0  0  0  0  0  0  0  0  0
   36.3991  -24.1408   37.2991 C   0  0  0  0  0  0  0  0  0  0  0  0
   36.1652  -24.5043   38.5962 C   0  0  0  0  0  0  0  0  0  0  0  0
   36.9429  -25.8805   39.3527 Cl  0  0  0  0  0  0  0  0  0  0  0  0
   35.2869  -23.7729   39.3550 C   0  0  0  0  0  0  0  0  0  0  0  0
   34.6392  -22.6604   38.7912 C   0  0  0  0  0  0  0  0  0  0  0  0
   33.4916  -21.7930   39.8092 Cl  0  0  0  0  0  0  0  0  0  0  0  0
   32.2014  -22.3199   35.9028 C   0  0  0  0  0  0  0  0  0  0  0  0
   32.2149  -22.7268   34.5956 C   0  0  0  0  0  0  0  0  0  0  0  0
   31.3696  -23.7336   34.1470 C   0  0  0  0  0  0  0  0  0  0  0  0
   30.4828  -24.3702   34.9845 C   0  0  0  0  0  0  0  0  0  0  0  0
   29.4116  -25.6420   34.4347 Cl  0  0  0  0  0  0  0  0  0  0  0  0
   30.4591  -23.9695   36.3037 C   0  0  0  0  0  0  0  0  0  0  0  0
   31.3050  -22.9657   36.7339 C   0  0  0  0  0  0  0  0  0  0  0  0
   31.6339  -19.3291   33.8490 C   0  0  0  0  0  0  0  0  0  0  0  0
   31.4551  -19.3063   35.3968 C   0  0  0  0  0  0  0  0  0  0  0  0
 31 32  1  0  0  0
 32  1  1  0  0  0
  1  2  1  0  0  0
  2  6  1  0  0  0
  6  7  2  0  0  0
  7  8  1  0  0  0
  8  9  1  0  0  0
  9 10  1  0  0  0
 10 11  1  0  0  0
  8 12  1  0  0  0
 12 13  2  0  0  0
 12 14  1  0  0  0
  2  3  2  0  0  0
  3  4  1  0  0  0
  4 16  1  0  0  0
 16 17  2  0  0  0
 17 18  1  0  0  0
 18 19  2  0  0  0
 19 20  1  0  0  0
 19 21  1  0  0  0
 21 22  2  0  0  0
 22 23  1  0  0  0
  4  5  1  0  0  0
  5 24  1  0  0  0
 24 25  2  0  0  0
 25 26  1  0  0  0
 26 27  2  0  0  0
 27 28  1  0  0  0
 27 29  1  0  0  0
 29 30  2  0  0  0
  5  1  2  0  0  0
 30 24  1  0  0  0
 14  6  1  0  0  0
 22 16  1  0  0  0
 11  8  1  0  0  0
 14 15  1  0  0  0
M  END
> <minimizedAffinity>
-5.09571

> <CNNscore>
0.3173919022

> <CNNaffinity>
6.0578317642

> <CNN_VS>
1.9227067232

> <CNNaffinity_variance>
0.3030109406

$$$$
[H]c1c([H])c(-c2c(C([H])([H])C([H])([H])[H])c(C3=NC4(C(=O)N3[H])C([H])([H])C([H])([H])C4([H])[H])nn2-c2c([H])c([H])c(Cl)c([H])c2Cl)c([H])c([H])c1Cl


 32 36  0  0  0  0  0  0  0  0999 V2000
   38.5085  -19.8554   37.1291 C   0  0  0  0  0  0  0  0  0  0  0  0
   39.2190  -20.7634   37.8538 C   0  0  0  0  0  0  0  0  0  0  0  0
   38.2649  -21.6565   38.2683 N   0  0  0  0  0  0  0  0  0  0  0  0
   37.0627  -21.3301   37.8315 N   0  0  0  0  0  0  0  0  0  0  0  0
   37.1457  -20.2173   37.1100 C   0  0  0  0  0  0  0  0  0  0  0  0
   40.6309  -20.9209   38.1591 C   0  0  0  0  0  0  0  0  0  0  0  0
   41.2670  -20.0471   38.9399 N   0  0  0  0  0  0  0  0  0  0  0  0
   42.6317  -20.3798   39.1119 C   0  0  0  0  0  0  0  0  0  0  0  0
   43.1377  -20.4325   40.5358 C   0  0  0  0  0  0  0  0  0  0  0  0
   43.8442  -19.1308   40.3015 C   0  0  0  0  0  0  0  0  0  0  0  0
   43.6401  -19.2974   38.8145 C   0  0  0  0  0  0  0  0  0  0  0  0
   42.8490  -21.6365   38.3794 C   0  0  0  0  0  0  0  0  0  0  0  0
   43.8737  -22.3427   38.2555 O   0  0  0  0  0  0  0  0  0  0  0  0
   41.5468  -21.9106   37.7893 N   0  0  0  0  0  0  0  0  0  0  0  0
   41.4185  -22.7561   37.1958 H   0  0  0  0  0  0  0  0  0  0  0  0
   35.8821  -22.0867   38.1030 C   0  0  0  0  0  0  0  0  0  0  0  0
   35.4969  -23.2010   37.3624 C   0  0  0  0  0  0  0  0  0  0  0  0
   34.3404  -23.8840   37.6398 C   0  0  0  0  0  0  0  0  0  0  0  0
   33.5267  -23.4830   38.6627 C   0  0  0  0  0  0  0  0  0  0  0  0
   32.0364  -24.3095   39.0715 Cl  0  0  0  0  0  0  0  0  0  0  0  0
   33.8742  -22.3886   39.4133 C   0  0  0  0  0  0  0  0  0  0  0  0
   35.0607  -21.6937   39.1225 C   0  0  0  0  0  0  0  0  0  0  0  0
   35.4231  -20.2718   40.0986 Cl  0  0  0  0  0  0  0  0  0  0  0  0
   36.1358  -19.5773   36.2915 C   0  0  0  0  0  0  0  0  0  0  0  0
   36.1340  -19.7186   34.9296 C   0  0  0  0  0  0  0  0  0  0  0  0
   35.2444  -19.0079   34.1340 C   0  0  0  0  0  0  0  0  0  0  0  0
   34.3259  -18.1331   34.6670 C   0  0  0  0  0  0  0  0  0  0  0  0
   33.1970  -17.2308   33.6778 Cl  0  0  0  0  0  0  0  0  0  0  0  0
   34.3176  -17.9814   36.0375 C   0  0  0  0  0  0  0  0  0  0  0  0
   35.2097  -18.6943   36.8148 C   0  0  0  0  0  0  0  0  0  0  0  0
   39.7458  -18.9698   35.1906 C   0  0  0  0  0  0  0  0  0  0  0  0
   39.1143  -18.6043   36.5675 C   0  0  0  0  0  0  0  0  0  0  0  0
 31 32  1  0  0  0
 32  1  1  0  0  0
  1  2  1  0  0  0
  2  6  1  0  0  0
  6  7  2  0  0  0
  7  8  1  0  0  0
  8  9  1  0  0  0
  9 10  1  0  0  0
 10 11  1  0  0  0
  8 12  1  0  0  0
 12 13  2  0  0  0
 12 14  1  0  0  0
  2  3  2  0  0  0
  3  4  1  0  0  0
  4 16  1  0  0  0
 16 17  2  0  0  0
 17 18  1  0  0  0
 18 19  2  0  0  0
 19 20  1  0  0  0
 19 21  1  0  0  0
 21 22  2  0  0  0
 22 23  1  0  0  0
  4  5  1  0  0  0
  5 24  1  0  0  0
 24 25  2  0  0  0
 25 26  1  0  0  0
 26 27  2  0  0  0
 27 28  1  0  0  0
 27 29  1  0  0  0
 29 30  2  0  0  0
  5  1  2  0  0  0
 30 24  1  0  0  0
 14  6  1  0  0  0
 22 16  1  0  0  0
 11  8  1  0  0  0
 14 15  1  0  0  0
M  END
> <minimizedAffinity>
-4.19223

> <CNNscore>
0.3156977594

> <CNNaffinity>
5.7652688026

> <CNN_VS>
1.8200824261

> <CNNaffinity_variance>
0.2939653993

$$$$
[H]c1c([H])c(-c2c(C([H])([H])C([H])([H])[H])c(C3=NC4(C(=O)N3[H])C([H])([H])C([H])([H])C4([H])[H])nn2-c2c([H])c([H])c(Cl)c([H])c2Cl)c([H])c([H])c1Cl


 32 36  0  0  0  0  0  0  0  0999 V2000
   37.3519  -18.9236   37.0684 C   0  0  0  0  0  0  0  0  0  0  0  0
   36.4655  -17.9277   37.3461 C   0  0  0  0  0  0  0  0  0  0  0  0
   35.4024  -18.5931   37.8999 N   0  0  0  0  0  0  0  0  0  0  0  0
   35.6157  -19.8943   37.9639 N   0  0  0  0  0  0  0  0  0  0  0  0
   36.8168  -20.1667   37.4649 C   0  0  0  0  0  0  0  0  0  0  0  0
   36.5034  -16.4819   37.2059 C   0  0  0  0  0  0  0  0  0  0  0  0
   35.3915  -15.7847   36.9707 N   0  0  0  0  0  0  0  0  0  0  0  0
   35.6439  -14.3960   36.8678 C   0  0  0  0  0  0  0  0  0  0  0  0
   34.7838  -13.4903   37.7198 C   0  0  0  0  0  0  0  0  0  0  0  0
   34.0323  -13.0918   36.4850 C   0  0  0  0  0  0  0  0  0  0  0  0
   35.1237  -13.6979   35.6353 C   0  0  0  0  0  0  0  0  0  0  0  0
   37.0831  -14.2157   37.1117 C   0  0  0  0  0  0  0  0  0  0  0  0
   37.7798  -13.1781   37.1572 O   0  0  0  0  0  0  0  0  0  0  0  0
   37.5644  -15.5763   37.3015 N   0  0  0  0  0  0  0  0  0  0  0  0
   38.5755  -15.7436   37.4844 H   0  0  0  0  0  0  0  0  0  0  0  0
   34.6819  -20.8307   38.5035 C   0  0  0  0  0  0  0  0  0  0  0  0
   34.6959  -21.2513   39.8307 C   0  0  0  0  0  0  0  0  0  0  0  0
   33.7970  -22.1735   40.3022 C   0  0  0  0  0  0  0  0  0  0  0  0
   32.8531  -22.7096   39.4711 C   0  0  0  0  0  0  0  0  0  0  0  0
   31.6748  -23.8907   40.0075 Cl  0  0  0  0  0  0  0  0  0  0  0  0
   32.8099  -22.3190   38.1567 C   0  0  0  0  0  0  0  0  0  0  0  0
   33.7348  -21.3739   37.6808 C   0  0  0  0  0  0  0  0  0  0  0  0
   33.6497  -20.9507   35.9722 Cl  0  0  0  0  0  0  0  0  0  0  0  0
   37.5550  -21.4133   37.4796 C   0  0  0  0  0  0  0  0  0  0  0  0
   38.3915  -21.7287   38.5166 C   0  0  0  0  0  0  0  0  0  0  0  0
   39.1931  -22.8624   38.4746 C   0  0  0  0  0  0  0  0  0  0  0  0
   39.1887  -23.7209   37.3994 C   0  0  0  0  0  0  0  0  0  0  0  0
   40.1923  -25.1545   37.3319 Cl  0  0  0  0  0  0  0  0  0  0  0  0
   38.3508  -23.4143   36.3482 C   0  0  0  0  0  0  0  0  0  0  0  0
   37.5609  -22.2824   36.4045 C   0  0  0  0  0  0  0  0  0  0  0  0
   38.3355  -18.8560   34.8098 C   0  0  0  0  0  0  0  0  0  0  0  0
   38.6359  -18.6921   36.3301 C   0  0  0  0  0  0  0  0  0  0  0  0
 31 32  1  0  0  0
 32  1  1  0  0  0
  1  2  1  0  0  0
  2  6  1  0  0  0
  6  7  2  0  0  0
  7  8  1  0  0  0
  8  9  1  0  0  0
  9 10  1  0  0  0
 10 11  1  0  0  0
  8 12  1  0  0  0
 12 13  2  0  0  0
 12 14  1  0  0  0
  2  3  2  0  0  0
  3  4  1  0  0  0
  4 16  1  0  0  0
 16 17  2  0  0  0
 17 18  1  0  0  0
 18 19  2  0  0  0
 19 20  1  0  0  0
 19 21  1  0  0  0
 21 22  2  0  0  0
 22 23  1  0  0  0
  4  5  1  0  0  0
  5 24  1  0  0  0
 24 25  2  0  0  0
 25 26  1  0  0  0
 26 27  2  0  0  0
 27 28  1  0  0  0
 27 29  1  0  0  0
 29 30  2  0  0  0
  5  1  2  0  0  0
 30 24  1  0  0  0
 14  6  1  0  0  0
 22 16  1  0  0  0
 11  8  1  0  0  0
 14 15  1  0  0  0
M  END
> <minimizedAffinity>
-5.70990

> <CNNscore>
0.2837321162

> <CNNaffinity>
5.9926404953

> <CNN_VS>
1.7003046274

> <CNNaffinity_variance>
0.4659760594

$$$$
[H]c1c([H])c(-c2c(C([H])([H])C([H])([H])[H])c(C3=NC4(C(=O)N3[H])C([H])([H])C([H])([H])C4([H])[H])nn2-c2c([H])c([H])c(Cl)c([H])c2Cl)c([H])c([H])c1Cl


 32 36  0  0  0  0  0  0  0  0999 V2000
   37.3471  -20.1948   36.9131 C   0  0  0  0  0  0  0  0  0  0  0  0
   36.4731  -21.2388   36.9425 C   0  0  0  0  0  0  0  0  0  0  0  0
   37.2911  -22.3390   36.9375 N   0  0  0  0  0  0  0  0  0  0  0  0
   38.5675  -22.0029   36.9121 N   0  0  0  0  0  0  0  0  0  0  0  0
   38.6718  -20.6782   36.9002 C   0  0  0  0  0  0  0  0  0  0  0  0
   35.0251  -21.3342   37.0170 C   0  0  0  0  0  0  0  0  0  0  0  0
   34.2625  -21.0593   35.9584 N   0  0  0  0  0  0  0  0  0  0  0  0
   32.8840  -21.2122   36.2393 C   0  0  0  0  0  0  0  0  0  0  0  0
   32.0916  -22.0681   35.2772 C   0  0  0  0  0  0  0  0  0  0  0  0
   31.4823  -20.8190   34.7143 C   0  0  0  0  0  0  0  0  0  0  0  0
   31.9872  -20.0446   35.9086 C   0  0  0  0  0  0  0  0  0  0  0  0
   32.7924  -21.6791   37.6310 C   0  0  0  0  0  0  0  0  0  0  0  0
   31.7985  -21.9837   38.3264 O   0  0  0  0  0  0  0  0  0  0  0  0
   34.1816  -21.7177   38.0642 N   0  0  0  0  0  0  0  0  0  0  0  0
   34.4093  -22.0108   39.0368 H   0  0  0  0  0  0  0  0  0  0  0  0
   39.6411  -22.9448   36.9105 C   0  0  0  0  0  0  0  0  0  0  0  0
   40.2636  -23.4016   38.0691 C   0  0  0  0  0  0  0  0  0  0  0  0
   41.3101  -24.2868   38.0219 C   0  0  0  0  0  0  0  0  0  0  0  0
   41.7741  -24.7486   36.8217 C   0  0  0  0  0  0  0  0  0  0  0  0
   43.1057  -25.8802   36.6890 Cl  0  0  0  0  0  0  0  0  0  0  0  0
   41.1852  -24.3194   35.6593 C   0  0  0  0  0  0  0  0  0  0  0  0
   40.1137  -23.4119   35.7159 C   0  0  0  0  0  0  0  0  0  0  0  0
   39.4336  -22.8695   34.1832 Cl  0  0  0  0  0  0  0  0  0  0  0  0
   39.8515  -19.8496   37.0453 C   0  0  0  0  0  0  0  0  0  0  0  0
   40.3819  -19.1791   35.9758 C   0  0  0  0  0  0  0  0  0  0  0  0
   41.5806  -18.4857   36.0843 C   0  0  0  0  0  0  0  0  0  0  0  0
   42.2916  -18.4355   37.2611 C   0  0  0  0  0  0  0  0  0  0  0  0
   43.8035  -17.5649   37.4143 Cl  0  0  0  0  0  0  0  0  0  0  0  0
   41.7684  -19.1070   38.3458 C   0  0  0  0  0  0  0  0  0  0  0  0
   40.5759  -19.7932   38.2214 C   0  0  0  0  0  0  0  0  0  0  0  0
   35.9264  -18.4710   37.9539 C   0  0  0  0  0  0  0  0  0  0  0  0
   36.9099  -18.7668   36.7819 C   0  0  0  0  0  0  0  0  0  0  0  0
 31 32  1  0  0  0
 32  1  1  0  0  0
  1  2  1  0  0  0
  2  6  1  0  0  0
  6  7  2  0  0  0
  7  8  1  0  0  0
  8  9  1  0  0  0
  9 10  1  0  0  0
 10 11  1  0  0  0
  8 12  1  0  0  0
 12 13  2  0  0  0
 12 14  1  0  0  0
  2  3  2  0  0  0
  3  4  1  0  0  0
  4 16  1  0  0  0
 16 17  2  0  0  0
 17 18  1  0  0  0
 18 19  2  0  0  0
 19 20  1  0  0  0
 19 21  1  0  0  0
 21 22  2  0  0  0
 22 23  1  0  0  0
  4  5  1  0  0  0
  5 24  1  0  0  0
 24 25  2  0  0  0
 25 26  1  0  0  0
 26 27  2  0  0  0
 27 28  1  0  0  0
 27 29  1  0  0  0
 29 30  2  0  0  0
  5  1  2  0  0  0
 30 24  1  0  0  0
 14  6  1  0  0  0
 22 16  1  0  0  0
 11  8  1  0  0  0
 14 15  1  0  0  0
M  END
> <minimizedAffinity>
-4.51384

> <CNNscore>
0.2803926170

> <CNNaffinity>
5.9125266075

> <CNN_VS>
1.6578288078

> <CNNaffinity_variance>
0.3390018940

$$$$
[H]c1c([H])c(-c2c(C([H])([H])C([H])([H])[H])c(C3=NC4(C(=O)N3[H])C([H])([H])C([H])([H])C4([H])[H])nn2-c2c([H])c([H])c(Cl)c([H])c2Cl)c([H])c([H])c1Cl


 32 36  0  0  0  0  0  0  0  0999 V2000
   36.5792  -19.1880   35.5950 C   0  0  0  0  0  0  0  0  0  0  0  0
   37.6730  -19.7597   36.1707 C   0  0  0  0  0  0  0  0  0  0  0  0
   37.1380  -20.7383   36.9680 N   0  0  0  0  0  0  0  0  0  0  0  0
   35.8207  -20.7724   36.8883 N   0  0  0  0  0  0  0  0  0  0  0  0
   35.4082  -19.8327   36.0442 C   0  0  0  0  0  0  0  0  0  0  0  0
   39.1041  -19.5446   36.0405 C   0  0  0  0  0  0  0  0  0  0  0  0
   39.9027  -20.5009   35.5656 N   0  0  0  0  0  0  0  0  0  0  0  0
   41.2566  -20.0917   35.5195 C   0  0  0  0  0  0  0  0  0  0  0  0
   41.9753  -20.2891   34.2040 C   0  0  0  0  0  0  0  0  0  0  0  0
   42.7085  -21.4471   34.8123 C   0  0  0  0  0  0  0  0  0  0  0  0
   42.2653  -20.9963   36.1838 C   0  0  0  0  0  0  0  0  0  0  0  0
   41.2856  -18.6968   35.9850 C   0  0  0  0  0  0  0  0  0  0  0  0
   42.2370  -17.8926   36.0958 O   0  0  0  0  0  0  0  0  0  0  0  0
   39.8938  -18.4231   36.3120 N   0  0  0  0  0  0  0  0  0  0  0  0
   39.6269  -17.4881   36.6837 H   0  0  0  0  0  0  0  0  0  0  0  0
   35.0014  -21.6978   37.6041 C   0  0  0  0  0  0  0  0  0  0  0  0
   34.5535  -22.9019   37.0672 C   0  0  0  0  0  0  0  0  0  0  0  0
   33.7452  -23.7503   37.7796 C   0  0  0  0  0  0  0  0  0  0  0  0
   33.3540  -23.4315   39.0502 C   0  0  0  0  0  0  0  0  0  0  0  0
   32.3236  -24.4691   40.0161 Cl  0  0  0  0  0  0  0  0  0  0  0  0
   33.7755  -22.2527   39.6113 C   0  0  0  0  0  0  0  0  0  0  0  0
   34.6032  -21.3882   38.8747 C   0  0  0  0  0  0  0  0  0  0  0  0
   35.0712  -19.8716   39.6405 Cl  0  0  0  0  0  0  0  0  0  0  0  0
   34.0831  -19.6006   35.5061 C   0  0  0  0  0  0  0  0  0  0  0  0
   33.2077  -18.7477   36.1232 C   0  0  0  0  0  0  0  0  0  0  0  0
   31.8972  -18.6183   35.6811 C   0  0  0  0  0  0  0  0  0  0  0  0
   31.4140  -19.3330   34.6093 C   0  0  0  0  0  0  0  0  0  0  0  0
   29.7651  -19.1804   34.0390 Cl  0  0  0  0  0  0  0  0  0  0  0  0
   32.2856  -20.1958   33.9791 C   0  0  0  0  0  0  0  0  0  0  0  0
   33.5853  -20.3142   34.4319 C   0  0  0  0  0  0  0  0  0  0  0  0
   36.3924  -16.7309   35.6276 C   0  0  0  0  0  0  0  0  0  0  0  0
   36.6573  -17.9714   34.7224 C   0  0  0  0  0  0  0  0  0  0  0  0
 31 32  1  0  0  0
 32  1  1  0  0  0
  1  2  1  0  0  0
  2  6  1  0  0  0
  6  7  2  0  0  0
  7  8  1  0  0  0
  8  9  1  0  0  0
  9 10  1  0  0  0
 10 11  1  0  0  0
  8 12  1  0  0  0
 12 13  2  0  0  0
 12 14  1  0  0  0
  2  3  2  0  0  0
  3  4  1  0  0  0
  4 16  1  0  0  0
 16 17  2  0  0  0
 17 18  1  0  0  0
 18 19  2  0  0  0
 19 20  1  0  0  0
 19 21  1  0  0  0
 21 22  2  0  0  0
 22 23  1  0  0  0
  4  5  1  0  0  0
  5 24  1  0  0  0
 24 25  2  0  0  0
 25 26  1  0  0  0
 26 27  2  0  0  0
 27 28  1  0  0  0
 27 29  1  0  0  0
 29 30  2  0  0  0
  5  1  2  0  0  0
 30 24  1  0  0  0
 14  6  1  0  0  0
 22 16  1  0  0  0
 11  8  1  0  0  0
 14 15  1  0  0  0
M  END
> <minimizedAffinity>
-5.37352

> <CNNscore>
0.2722180486

> <CNNaffinity>
5.6827907562

> <CNN_VS>
1.5469582081

> <CNNaffinity_variance>
0.1612968743

$$$$
[H]c1c([H])c(-c2c(C([H])([H])C([H])([H])[H])c(C3=NC4(C(=O)N3[H])C([H])([H])C([H])([H])C4([H])[H])nn2-c2c([H])c([H])c(Cl)c([H])c2Cl)c([H])c([H])c1Cl


 32 36  0  0  0  0  0  0  0  0999 V2000
   38.9401  -19.7818   37.4890 C   0  0  0  0  0  0  0  0  0  0  0  0
   37.6142  -19.5115   37.3366 C   0  0  0  0  0  0  0  0  0  0  0  0
   37.0047  -20.4538   38.1241 N   0  0  0  0  0  0  0  0  0  0  0  0
   37.8824  -21.2400   38.7191 N   0  0  0  0  0  0  0  0  0  0  0  0
   39.1099  -20.8711   38.3683 C   0  0  0  0  0  0  0  0  0  0  0  0
   36.8739  -18.4935   36.6104 C   0  0  0  0  0  0  0  0  0  0  0  0
   35.7472  -18.7930   35.9634 N   0  0  0  0  0  0  0  0  0  0  0  0
   35.1835  -17.6642   35.3226 C   0  0  0  0  0  0  0  0  0  0  0  0
   33.7217  -17.3935   35.5983 C   0  0  0  0  0  0  0  0  0  0  0  0
   33.3993  -17.8998   34.2242 C   0  0  0  0  0  0  0  0  0  0  0  0
   34.8606  -17.8038   33.8552 C   0  0  0  0  0  0  0  0  0  0  0  0
   36.0501  -16.5226   35.6525 C   0  0  0  0  0  0  0  0  0  0  0  0
   35.9575  -15.3128   35.3494 O   0  0  0  0  0  0  0  0  0  0  0  0
   37.1058  -17.1235   36.4548 N   0  0  0  0  0  0  0  0  0  0  0  0
   37.8771  -16.5273   36.8199 H   0  0  0  0  0  0  0  0  0  0  0  0
   37.5299  -22.3036   39.6048 C   0  0  0  0  0  0  0  0  0  0  0  0
   37.3406  -22.1323   40.9736 C   0  0  0  0  0  0  0  0  0  0  0  0
   37.0288  -23.1863   41.7938 C   0  0  0  0  0  0  0  0  0  0  0  0
   36.8944  -24.4469   41.2821 C   0  0  0  0  0  0  0  0  0  0  0  0
   36.4971  -25.8373   42.2722 Cl  0  0  0  0  0  0  0  0  0  0  0  0
   37.0745  -24.6533   39.9379 C   0  0  0  0  0  0  0  0  0  0  0  0
   37.3944  -23.5683   39.1039 C   0  0  0  0  0  0  0  0  0  0  0  0
   37.6544  -23.9128   37.3953 Cl  0  0  0  0  0  0  0  0  0  0  0  0
   40.3859  -21.3150   38.8918 C   0  0  0  0  0  0  0  0  0  0  0  0
   40.9722  -20.6851   39.9567 C   0  0  0  0  0  0  0  0  0  0  0  0
   42.2496  -21.0282   40.3810 C   0  0  0  0  0  0  0  0  0  0  0  0
   42.9864  -22.0104   39.7602 C   0  0  0  0  0  0  0  0  0  0  0  0
   44.5974  -22.4553   40.2837 Cl  0  0  0  0  0  0  0  0  0  0  0  0
   42.4074  -22.6523   38.6860 C   0  0  0  0  0  0  0  0  0  0  0  0
   41.1368  -22.2985   38.2754 C   0  0  0  0  0  0  0  0  0  0  0  0
   40.2048  -19.8574   35.3752 C   0  0  0  0  0  0  0  0  0  0  0  0
   40.0119  -19.0789   36.7112 C   0  0  0  0  0  0  0  0  0  0  0  0
 31 32  1  0  0  0
 32  1  1  0  0  0
  1  2  1  0  0  0
  2  6  1  0  0  0
  6  7  2  0  0  0
  7  8  1  0  0  0
  8  9  1  0  0  0
  9 10  1  0  0  0
 10 11  1  0  0  0
  8 12  1  0  0  0
 12 13  2  0  0  0
 12 14  1  0  0  0
  2  3  2  0  0  0
  3  4  1  0  0  0
  4 16  1  0  0  0
 16 17  2  0  0  0
 17 18  1  0  0  0
 18 19  2  0  0  0
 19 20  1  0  0  0
 19 21  1  0  0  0
 21 22  2  0  0  0
 22 23  1  0  0  0
  4  5  1  0  0  0
  5 24  1  0  0  0
 24 25  2  0  0  0
 25 26  1  0  0  0
 26 27  2  0  0  0
 27 28  1  0  0  0
 27 29  1  0  0  0
 29 30  2  0  0  0
  5  1  2  0  0  0
 30 24  1  0  0  0
 14  6  1  0  0  0
 22 16  1  0  0  0
 11  8  1  0  0  0
 14 15  1  0  0  0
M  END
> <minimizedAffinity>
-4.38244

> <CNNscore>
0.2234432250

> <CNNaffinity>
5.8005175591

> <CNN_VS>
1.2960863113

> <CNNaffinity_variance>
0.1525889337

$$$$
[H]c1nc(OC([H])([H])C([H])([H])Oc2nc([H])c(Br)c([H])n2)c(-c2c([H])c([H])c(C([H])([H])[H])c([H])c2[H])c(N([H])S(=O)(=O)c2c([H])c([H])c(Cl)c([H])c2[H])n1


 36 39  0  0  0  0  0  0  0  0999 V2000
   35.5576  -18.0846   35.8609 C   0  0  0  0  0  0  0  0  0  0  0  0
   36.7628  -18.6583   36.0736 C   0  0  0  0  0  0  0  0  0  0  0  0
   37.7957  -17.8340   36.6894 N   0  0  0  0  0  0  0  0  0  0  0  0
   37.5844  -16.5966   37.0294 C   0  0  0  0  0  0  0  0  0  0  0  0
   36.3953  -16.0173   36.8248 N   0  0  0  0  0  0  0  0  0  0  0  0
   35.4479  -16.6771   36.2794 C   0  0  0  0  0  0  0  0  0  0  0  0
   30.1270  -19.2837   34.7269 C   0  0  0  0  0  0  0  0  0  0  0  0
   31.5911  -19.2053   34.9041 C   0  0  0  0  0  0  0  0  0  0  0  0
   32.2538  -19.6359   35.9903 C   0  0  0  0  0  0  0  0  0  0  0  0
   33.5687  -19.4250   36.2832 C   0  0  0  0  0  0  0  0  0  0  0  0
   34.3651  -18.6882   35.3721 C   0  0  0  0  0  0  0  0  0  0  0  0
   33.7131  -18.2623   34.2246 C   0  0  0  0  0  0  0  0  0  0  0  0
   32.3655  -18.4791   33.9212 C   0  0  0  0  0  0  0  0  0  0  0  0
   37.1031  -19.9350   35.6809 N   0  0  0  0  0  0  0  0  0  0  0  0
   36.5353  -20.6756   35.3950 H   0  0  0  0  0  0  0  0  0  0  0  0
   38.8504  -20.3151   35.7874 S   0  0  0  0  0  0  0  0  0  0  0  0
   38.9024  -21.6795   35.0010 O   0  0  0  0  0  0  0  0  0  0  0  0
   39.6437  -19.3803   34.9511 O   0  0  0  0  0  0  0  0  0  0  0  0
   39.4552  -20.6055   37.3333 C   0  0  0  0  0  0  0  0  0  0  0  0
   38.6716  -21.0822   38.3098 C   0  0  0  0  0  0  0  0  0  0  0  0
   38.9464  -21.2814   39.6009 C   0  0  0  0  0  0  0  0  0  0  0  0
   40.2112  -20.9404   40.0286 C   0  0  0  0  0  0  0  0  0  0  0  0
   40.7009  -21.1401   41.7098 Cl  0  0  0  0  0  0  0  0  0  0  0  0
   41.1686  -20.3943   39.1295 C   0  0  0  0  0  0  0  0  0  0  0  0
   40.7639  -20.2408   37.7798 C   0  0  0  0  0  0  0  0  0  0  0  0
   34.2160  -16.1937   35.9525 O   0  0  0  0  0  0  0  0  0  0  0  0
   33.5754  -15.1144   35.8805 C   0  0  0  0  0  0  0  0  0  0  0  0
   33.4525  -13.7816   36.4421 C   0  0  0  0  0  0  0  0  0  0  0  0
   32.4900  -13.0722   36.9107 O   0  0  0  0  0  0  0  0  0  0  0  0
   31.5429  -12.3699   37.3809 C   0  0  0  0  0  0  0  0  0  0  0  0
   30.8786  -12.8195   38.6132 N   0  0  0  0  0  0  0  0  0  0  0  0
   29.9014  -12.1319   39.2012 C   0  0  0  0  0  0  0  0  0  0  0  0
   29.4711  -10.9237   38.6379 C   0  0  0  0  0  0  0  0  0  0  0  0
   28.0441   -9.9695   39.4548 Br  0  0  0  0  0  0  0  0  0  0  0  0
   30.0624  -10.4870   37.4819 C   0  0  0  0  0  0  0  0  0  0  0  0
   30.9812  -11.1978   36.9706 N   0  0  0  0  0  0  0  0  0  0  0  0
  7  8  1  0  0  0
  8  9  2  0  0  0
  9 10  1  0  0  0
 10 11  2  0  0  0
 11  1  1  0  0  0
  1  2  1  0  0  0
  2 14  1  0  0  0
 14 16  1  0  0  0
 16 17  2  0  0  0
 16 18  2  0  0  0
 16 19  1  0  0  0
 19 20  2  0  0  0
 20 21  1  0  0  0
 21 22  2  0  0  0
 22 23  1  0  0  0
 22 24  1  0  0  0
 24 25  2  0  0  0
  2  3  2  0  0  0
  3  4  1  0  0  0
  4  5  2  0  0  0
  5  6  1  0  0  0
  6 26  1  0  0  0
 26 27  1  0  0  0
 27 28  1  0  0  0
 28 29  1  0  0  0
 29 30  1  0  0  0
 30 31  2  0  0  0
 31 32  1  0  0  0
 32 33  2  0  0  0
 33 34  1  0  0  0
 33 35  1  0  0  0
 35 36  2  0  0  0
 11 12  1  0  0  0
 12 13  2  0  0  0
 13  8  1  0  0  0
  6  1  2  0  0  0
 36 30  1  0  0  0
 25 19  1  0  0  0
 14 15  1  0  0  0
M  END
> <minimizedAffinity>
-6.58638

> <CNNscore>
0.3064627051

> <CNNaffinity>
5.9873476028

> <CNN_VS>
1.8348987103

> <CNNaffinity_variance>
0.1414417922

$$$$
[H]c1nc(OC([H])([H])C([H])([H])Oc2nc([H])c(Br)c([H])n2)c(-c2c([H])c([H])c(C([H])([H])[H])c([H])c2[H])c(N([H])S(=O)(=O)c2c([H])c([H])c(Cl)c([H])c2[H])n1


 36 39  0  0  0  0  0  0  0  0999 V2000
   33.9316  -19.7328   35.6044 C   0  0  0  0  0  0  0  0  0  0  0  0
   33.0227  -20.6564   35.2200 C   0  0  0  0  0  0  0  0  0  0  0  0
   31.6768  -20.1842   34.9184 N   0  0  0  0  0  0  0  0  0  0  0  0
   31.3459  -18.9296   35.0072 C   0  0  0  0  0  0  0  0  0  0  0  0
   32.2367  -18.0053   35.3860 N   0  0  0  0  0  0  0  0  0  0  0  0
   33.4315  -18.3497   35.6762 C   0  0  0  0  0  0  0  0  0  0  0  0
   39.4373  -18.8398   36.6554 C   0  0  0  0  0  0  0  0  0  0  0  0
   38.0766  -19.3271   36.3519 C   0  0  0  0  0  0  0  0  0  0  0  0
   37.5328  -19.3607   35.1240 C   0  0  0  0  0  0  0  0  0  0  0  0
   36.2320  -19.6254   34.8125 C   0  0  0  0  0  0  0  0  0  0  0  0
   35.3204  -19.9114   35.8586 C   0  0  0  0  0  0  0  0  0  0  0  0
   35.8647  -19.9181   37.1341 C   0  0  0  0  0  0  0  0  0  0  0  0
   37.1986  -19.6489   37.4557 C   0  0  0  0  0  0  0  0  0  0  0  0
   33.2585  -22.0135   35.1685 N   0  0  0  0  0  0  0  0  0  0  0  0
   33.4602  -22.5866   34.4044 H   0  0  0  0  0  0  0  0  0  0  0  0
   33.0912  -22.8670   36.7344 S   0  0  0  0  0  0  0  0  0  0  0  0
   32.1058  -21.8990   37.4925 O   0  0  0  0  0  0  0  0  0  0  0  0
   32.3162  -24.1219   36.5691 O   0  0  0  0  0  0  0  0  0  0  0  0
   34.4891  -22.9890   37.6677 C   0  0  0  0  0  0  0  0  0  0  0  0
   35.6241  -23.4883   37.1605 C   0  0  0  0  0  0  0  0  0  0  0  0
   36.7855  -23.7468   37.7656 C   0  0  0  0  0  0  0  0  0  0  0  0
   36.8551  -23.4879   39.1173 C   0  0  0  0  0  0  0  0  0  0  0  0
   38.3245  -23.7958   40.0405 Cl  0  0  0  0  0  0  0  0  0  0  0  0
   35.7327  -22.9773   39.8264 C   0  0  0  0  0  0  0  0  0  0  0  0
   34.5578  -22.7314   39.0727 C   0  0  0  0  0  0  0  0  0  0  0  0
   34.4155  -17.5272   36.1383 O   0  0  0  0  0  0  0  0  0  0  0  0
   34.8789  -16.3695   35.9787 C   0  0  0  0  0  0  0  0  0  0  0  0
   35.0328  -15.0692   36.6050 C   0  0  0  0  0  0  0  0  0  0  0  0
   34.2696  -14.0569   36.8098 O   0  0  0  0  0  0  0  0  0  0  0  0
   33.5207  -13.0515   37.0089 C   0  0  0  0  0  0  0  0  0  0  0  0
   34.1413  -11.7813   37.4134 N   0  0  0  0  0  0  0  0  0  0  0  0
   33.4431  -10.6644   37.6094 C   0  0  0  0  0  0  0  0  0  0  0  0
   32.0542  -10.6770   37.4276 C   0  0  0  0  0  0  0  0  0  0  0  0
   31.0561   -9.0923   37.7540 Br  0  0  0  0  0  0  0  0  0  0  0  0
   31.4469  -11.8501   37.0642 C   0  0  0  0  0  0  0  0  0  0  0  0
   32.1728  -12.8787   36.9040 N   0  0  0  0  0  0  0  0  0  0  0  0
  7  8  1  0  0  0
  8  9  2  0  0  0
  9 10  1  0  0  0
 10 11  2  0  0  0
 11  1  1  0  0  0
  1  2  1  0  0  0
  2 14  1  0  0  0
 14 16  1  0  0  0
 16 17  2  0  0  0
 16 18  2  0  0  0
 16 19  1  0  0  0
 19 20  2  0  0  0
 20 21  1  0  0  0
 21 22  2  0  0  0
 22 23  1  0  0  0
 22 24  1  0  0  0
 24 25  2  0  0  0
  2  3  2  0  0  0
  3  4  1  0  0  0
  4  5  2  0  0  0
  5  6  1  0  0  0
  6 26  1  0  0  0
 26 27  1  0  0  0
 27 28  1  0  0  0
 28 29  1  0  0  0
 29 30  1  0  0  0
 30 31  2  0  0  0
 31 32  1  0  0  0
 32 33  2  0  0  0
 33 34  1  0  0  0
 33 35  1  0  0  0
 35 36  2  0  0  0
 11 12  1  0  0  0
 12 13  2  0  0  0
 13  8  1  0  0  0
  6  1  2  0  0  0
 36 30  1  0  0  0
 25 19  1  0  0  0
 14 15  1  0  0  0
M  END
> <minimizedAffinity>
-5.55769

> <CNNscore>
0.1819205880

> <CNNaffinity>
5.6995491982

> <CNN_VS>
1.0368653536

> <CNNaffinity_variance>
0.2020223588

$$$$
[H]c1nc(OC([H])([H])C([H])([H])Oc2nc([H])c(Br)c([H])n2)c(-c2c([H])c([H])c(C([H])([H])[H])c([H])c2[H])c(N([H])S(=O)(=O)c2c([H])c([H])c(Cl)c([H])c2[H])n1


 36 39  0  0  0  0  0  0  0  0999 V2000
   35.5978  -17.7915   35.9740 C   0  0  0  0  0  0  0  0  0  0  0  0
   36.8073  -18.3404   36.2244 C   0  0  0  0  0  0  0  0  0  0  0  0
   37.8241  -17.4768   36.8125 N   0  0  0  0  0  0  0  0  0  0  0  0
   37.5949  -16.2279   37.0940 C   0  0  0  0  0  0  0  0  0  0  0  0
   36.4014  -15.6728   36.8515 N   0  0  0  0  0  0  0  0  0  0  0  0
   35.4675  -16.3679   36.3272 C   0  0  0  0  0  0  0  0  0  0  0  0
   31.8259  -21.6429   34.1982 C   0  0  0  0  0  0  0  0  0  0  0  0
   32.6225  -20.4624   34.5889 C   0  0  0  0  0  0  0  0  0  0  0  0
   33.5017  -19.8349   33.7902 C   0  0  0  0  0  0  0  0  0  0  0  0
   34.3885  -18.8648   34.1529 C   0  0  0  0  0  0  0  0  0  0  0  0
   34.4175  -18.4309   35.5012 C   0  0  0  0  0  0  0  0  0  0  0  0
   33.4945  -19.0380   36.3395 C   0  0  0  0  0  0  0  0  0  0  0  0
   32.5830  -20.0316   35.9694 C   0  0  0  0  0  0  0  0  0  0  0  0
   37.1665  -19.6294   35.8934 N   0  0  0  0  0  0  0  0  0  0  0  0
   36.9977  -20.1376   35.0773 H   0  0  0  0  0  0  0  0  0  0  0  0
   38.0037  -20.5351   37.1924 S   0  0  0  0  0  0  0  0  0  0  0  0
   38.2145  -21.9293   36.4892 O   0  0  0  0  0  0  0  0  0  0  0  0
   39.3792  -20.0150   37.3935 O   0  0  0  0  0  0  0  0  0  0  0  0
   37.1148  -20.8127   38.5969 C   0  0  0  0  0  0  0  0  0  0  0  0
   35.8647  -20.3506   38.7331 C   0  0  0  0  0  0  0  0  0  0  0  0
   35.0536  -20.3892   39.7926 C   0  0  0  0  0  0  0  0  0  0  0  0
   35.5525  -20.9699   40.9385 C   0  0  0  0  0  0  0  0  0  0  0  0
   34.5917  -21.0748   42.4123 Cl  0  0  0  0  0  0  0  0  0  0  0  0
   36.8746  -21.4926   40.9817 C   0  0  0  0  0  0  0  0  0  0  0  0
   37.6365  -21.4047   39.7897 C   0  0  0  0  0  0  0  0  0  0  0  0
   34.2335  -15.9147   35.9664 O   0  0  0  0  0  0  0  0  0  0  0  0
   33.5550  -14.8575   35.9163 C   0  0  0  0  0  0  0  0  0  0  0  0
   33.3607  -13.5563   36.5294 C   0  0  0  0  0  0  0  0  0  0  0  0
   32.3561  -12.9062   36.9956 O   0  0  0  0  0  0  0  0  0  0  0  0
   31.3638  -12.2676   37.4635 C   0  0  0  0  0  0  0  0  0  0  0  0
   30.7519  -12.7375   38.7152 N   0  0  0  0  0  0  0  0  0  0  0  0
   29.7323  -12.1130   39.3016 C   0  0  0  0  0  0  0  0  0  0  0  0
   29.2032  -10.9549   38.7175 C   0  0  0  0  0  0  0  0  0  0  0  0
   27.7175  -10.0938   39.5332 Br  0  0  0  0  0  0  0  0  0  0  0  0
   29.7443  -10.5017   37.5434 C   0  0  0  0  0  0  0  0  0  0  0  0
   30.7085  -11.1519   37.0351 N   0  0  0  0  0  0  0  0  0  0  0  0
  7  8  1  0  0  0
  8  9  2  0  0  0
  9 10  1  0  0  0
 10 11  2  0  0  0
 11  1  1  0  0  0
  1  2  1  0  0  0
  2 14  1  0  0  0
 14 16  1  0  0  0
 16 17  2  0  0  0
 16 18  2  0  0  0
 16 19  1  0  0  0
 19 20  2  0  0  0
 20 21  1  0  0  0
 21 22  2  0  0  0
 22 23  1  0  0  0
 22 24  1  0  0  0
 24 25  2  0  0  0
  2  3  2  0  0  0
  3  4  1  0  0  0
  4  5  2  0  0  0
  5  6  1  0  0  0
  6 26  1  0  0  0
 26 27  1  0  0  0
 27 28  1  0  0  0
 28 29  1  0  0  0
 29 30  1  0  0  0
 30 31  2  0  0  0
 31 32  1  0  0  0
 32 33  2  0  0  0
 33 34  1  0  0  0
 33 35  1  0  0  0
 35 36  2  0  0  0
 11 12  1  0  0  0
 12 13  2  0  0  0
 13  8  1  0  0  0
  6  1  2  0  0  0
 36 30  1  0  0  0
 25 19  1  0  0  0
 14 15  1  0  0  0
M  END
> <minimizedAffinity>
-6.44397

> <CNNscore>
0.1738470644

> <CNNaffinity>
5.8137388229

> <CNN_VS>
1.0107014179

> <CNNaffinity_variance>
0.1623825133

$$$$
[H]c1nc(OC([H])([H])C([H])([H])Oc2nc([H])c(Br)c([H])n2)c(-c2c([H])c([H])c(C([H])([H])[H])c([H])c2[H])c(N([H])S(=O)(=O)c2c([H])c([H])c(Cl)c([H])c2[H])n1


 36 39  0  0  0  0  0  0  0  0999 V2000
   34.7953  -19.3864   35.9841 C   0  0  0  0  0  0  0  0  0  0  0  0
   34.3539  -20.5847   36.4270 C   0  0  0  0  0  0  0  0  0  0  0  0
   32.9148  -20.8170   36.4032 N   0  0  0  0  0  0  0  0  0  0  0  0
   32.0748  -19.9215   35.9745 C   0  0  0  0  0  0  0  0  0  0  0  0
   32.4993  -18.7315   35.5327 N   0  0  0  0  0  0  0  0  0  0  0  0
   33.7460  -18.4558   35.5356 C   0  0  0  0  0  0  0  0  0  0  0  0
   40.4385  -18.8633   36.2938 C   0  0  0  0  0  0  0  0  0  0  0  0
   38.9802  -18.7686   36.0802 C   0  0  0  0  0  0  0  0  0  0  0  0
   38.1163  -18.2066   36.9418 C   0  0  0  0  0  0  0  0  0  0  0  0
   36.7549  -18.2534   36.8824 C   0  0  0  0  0  0  0  0  0  0  0  0
   36.1381  -18.9474   35.8124 C   0  0  0  0  0  0  0  0  0  0  0  0
   37.0082  -19.5069   34.8887 C   0  0  0  0  0  0  0  0  0  0  0  0
   38.4044  -19.4585   34.9464 C   0  0  0  0  0  0  0  0  0  0  0  0
   35.1582  -21.5650   36.9675 N   0  0  0  0  0  0  0  0  0  0  0  0
   35.6632  -22.2751   36.5276 H   0  0  0  0  0  0  0  0  0  0  0  0
   35.2222  -21.5846   38.7575 S   0  0  0  0  0  0  0  0  0  0  0  0
   34.4827  -20.2341   39.0925 O   0  0  0  0  0  0  0  0  0  0  0  0
   34.3288  -22.6362   39.3041 O   0  0  0  0  0  0  0  0  0  0  0  0
   36.7572  -21.4987   39.4475 C   0  0  0  0  0  0  0  0  0  0  0  0
   37.8392  -21.2215   38.7077 C   0  0  0  0  0  0  0  0  0  0  0  0
   39.1276  -21.2058   39.0564 C   0  0  0  0  0  0  0  0  0  0  0  0
   39.4241  -21.5352   40.3613 C   0  0  0  0  0  0  0  0  0  0  0  0
   41.0851  -21.5660   40.9497 Cl  0  0  0  0  0  0  0  0  0  0  0  0
   38.3978  -21.8828   41.2827 C   0  0  0  0  0  0  0  0  0  0  0  0
   37.0661  -21.8519   40.7985 C   0  0  0  0  0  0  0  0  0  0  0  0
   34.3071  -17.2657   35.1795 O   0  0  0  0  0  0  0  0  0  0  0  0
   34.2682  -16.0414   35.4628 C   0  0  0  0  0  0  0  0  0  0  0  0
   34.2224  -15.0900   36.5579 C   0  0  0  0  0  0  0  0  0  0  0  0
   33.6073  -13.9856   36.7845 O   0  0  0  0  0  0  0  0  0  0  0  0
   33.0054  -12.8900   37.0049 C   0  0  0  0  0  0  0  0  0  0  0  0
   33.8020  -11.7140   37.3853 N   0  0  0  0  0  0  0  0  0  0  0  0
   33.2649  -10.5146   37.6007 C   0  0  0  0  0  0  0  0  0  0  0  0
   31.8814  -10.3425   37.4643 C   0  0  0  0  0  0  0  0  0  0  0  0
   31.1137   -8.6398   37.8185 Br  0  0  0  0  0  0  0  0  0  0  0  0
   31.1122  -11.4240   37.1244 C   0  0  0  0  0  0  0  0  0  0  0  0
   31.6896  -12.5397   36.9436 N   0  0  0  0  0  0  0  0  0  0  0  0
  7  8  1  0  0  0
  8  9  2  0  0  0
  9 10  1  0  0  0
 10 11  2  0  0  0
 11  1  1  0  0  0
  1  2  1  0  0  0
  2 14  1  0  0  0
 14 16  1  0  0  0
 16 17  2  0  0  0
 16 18  2  0  0  0
 16 19  1  0  0  0
 19 20  2  0  0  0
 20 21  1  0  0  0
 21 22  2  0  0  0
 22 23  1  0  0  0
 22 24  1  0  0  0
 24 25  2  0  0  0
  2  3  2  0  0  0
  3  4  1  0  0  0
  4  5  2  0  0  0
  5  6  1  0  0  0
  6 26  1  0  0  0
 26 27  1  0  0  0
 27 28  1  0  0  0
 28 29  1  0  0  0
 29 30  1  0  0  0
 30 31  2  0  0  0
 31 32  1  0  0  0
 32 33  2  0  0  0
 33 34  1  0  0  0
 33 35  1  0  0  0
 35 36  2  0  0  0
 11 12  1  0  0  0
 12 13  2  0  0  0
 13  8  1  0  0  0
  6  1  2  0  0  0
 36 30  1  0  0  0
 25 19  1  0  0  0
 14 15  1  0  0  0
M  END
> <minimizedAffinity>
-5.94680

> <CNNscore>
0.1590053141

> <CNNaffinity>
5.5813088417

> <CNN_VS>
0.8874577880

> <CNNaffinity_variance>
0.3644834161

$$$$
[H]c1nc(OC([H])([H])C([H])([H])Oc2nc([H])c(Br)c([H])n2)c(-c2c([H])c([H])c(C([H])([H])[H])c([H])c2[H])c(N([H])S(=O)(=O)c2c([H])c([H])c(Cl)c([H])c2[H])n1


 36 39  0  0  0  0  0  0  0  0999 V2000
   35.6191  -17.1931   36.0580 C   0  0  0  0  0  0  0  0  0  0  0  0
   36.8400  -17.6462   36.4200 C   0  0  0  0  0  0  0  0  0  0  0  0
   37.7399  -16.6982   37.0658 N   0  0  0  0  0  0  0  0  0  0  0  0
   37.3991  -15.4642   37.2949 C   0  0  0  0  0  0  0  0  0  0  0  0
   36.1931  -15.0036   36.9419 N   0  0  0  0  0  0  0  0  0  0  0  0
   35.3581  -15.7762   36.3620 C   0  0  0  0  0  0  0  0  0  0  0  0
   32.2859  -21.3500   34.1023 C   0  0  0  0  0  0  0  0  0  0  0  0
   32.9640  -20.1055   34.5176 C   0  0  0  0  0  0  0  0  0  0  0  0
   33.8671  -19.4430   33.7761 C   0  0  0  0  0  0  0  0  0  0  0  0
   34.6514  -18.4028   34.1789 C   0  0  0  0  0  0  0  0  0  0  0  0
   34.5310  -17.9272   35.5080 C   0  0  0  0  0  0  0  0  0  0  0  0
   33.5794  -18.5714   36.2844 C   0  0  0  0  0  0  0  0  0  0  0  0
   32.7728  -19.6368   35.8729 C   0  0  0  0  0  0  0  0  0  0  0  0
   37.3169  -18.9116   36.1532 N   0  0  0  0  0  0  0  0  0  0  0  0
   37.1441  -19.7564   36.6105 H   0  0  0  0  0  0  0  0  0  0  0  0
   38.4961  -19.0038   34.8079 S   0  0  0  0  0  0  0  0  0  0  0  0
   38.2088  -20.4548   34.2648 O   0  0  0  0  0  0  0  0  0  0  0  0
   38.0936  -18.1097   33.6938 O   0  0  0  0  0  0  0  0  0  0  0  0
   40.1237  -18.9449   35.2406 C   0  0  0  0  0  0  0  0  0  0  0  0
   40.5033  -18.9371   36.5254 C   0  0  0  0  0  0  0  0  0  0  0  0
   41.7221  -18.7993   37.0521 C   0  0  0  0  0  0  0  0  0  0  0  0
   42.7655  -18.6199   36.1699 C   0  0  0  0  0  0  0  0  0  0  0  0
   44.4229  -18.4124   36.7323 Cl  0  0  0  0  0  0  0  0  0  0  0  0
   42.5415  -18.5765   34.7660 C   0  0  0  0  0  0  0  0  0  0  0  0
   41.2051  -18.7470   34.3258 C   0  0  0  0  0  0  0  0  0  0  0  0
   34.1289  -15.4225   35.8906 O   0  0  0  0  0  0  0  0  0  0  0  0
   33.3532  -14.4354   35.8229 C   0  0  0  0  0  0  0  0  0  0  0  0
   33.0200  -13.1595   36.4292 C   0  0  0  0  0  0  0  0  0  0  0  0
   32.0252  -12.6963   37.0964 O   0  0  0  0  0  0  0  0  0  0  0  0
   31.0449  -12.2309   37.7550 C   0  0  0  0  0  0  0  0  0  0  0  0
   30.2823  -11.1109   37.1840 N   0  0  0  0  0  0  0  0  0  0  0  0
   29.2175  -10.5804   37.7825 C   0  0  0  0  0  0  0  0  0  0  0  0
   28.7869  -11.0967   39.0115 C   0  0  0  0  0  0  0  0  0  0  0  0
   27.2950  -10.3055   39.8845 Br  0  0  0  0  0  0  0  0  0  0  0  0
   29.4868  -12.1313   39.5742 C   0  0  0  0  0  0  0  0  0  0  0  0
   30.4977  -12.5817   38.9530 N   0  0  0  0  0  0  0  0  0  0  0  0
  7  8  1  0  0  0
  8  9  2  0  0  0
  9 10  1  0  0  0
 10 11  2  0  0  0
 11  1  1  0  0  0
  1  2  1  0  0  0
  2 14  1  0  0  0
 14 16  1  0  0  0
 16 17  2  0  0  0
 16 18  2  0  0  0
 16 19  1  0  0  0
 19 20  2  0  0  0
 20 21  1  0  0  0
 21 22  2  0  0  0
 22 23  1  0  0  0
 22 24  1  0  0  0
 24 25  2  0  0  0
  2  3  2  0  0  0
  3  4  1  0  0  0
  4  5  2  0  0  0
  5  6  1  0  0  0
  6 26  1  0  0  0
 26 27  1  0  0  0
 27 28  1  0  0  0
 28 29  1  0  0  0
 29 30  1  0  0  0
 30 31  2  0  0  0
 31 32  1  0  0  0
 32 33  2  0  0  0
 33 34  1  0  0  0
 33 35  1  0  0  0
 35 36  2  0  0  0
 11 12  1  0  0  0
 12 13  2  0  0  0
 13  8  1  0  0  0
  6  1  2  0  0  0
 36 30  1  0  0  0
 25 19  1  0  0  0
 14 15  1  0  0  0
M  END
> <minimizedAffinity>
-7.18824

> <CNNscore>
0.1581099480

> <CNNaffinity>
5.6944246292

> <CNN_VS>
0.9003452063

> <CNNaffinity_variance>
0.3501967788

$$$$
[H]c1nc(OC([H])([H])C([H])([H])Oc2nc([H])c(Br)c([H])n2)c(-c2c([H])c([H])c(C([H])([H])[H])c([H])c2[H])c(N([H])S(=O)(=O)c2c([H])c([H])c(Cl)c([H])c2[H])n1


 36 39  0  0  0  0  0  0  0  0999 V2000
   35.6643  -17.2197   36.1007 C   0  0  0  0  0  0  0  0  0  0  0  0
   36.9123  -17.6321   36.4164 C   0  0  0  0  0  0  0  0  0  0  0  0
   37.7882  -16.6690   37.0727 N   0  0  0  0  0  0  0  0  0  0  0  0
   37.4020  -15.4593   37.3534 C   0  0  0  0  0  0  0  0  0  0  0  0
   36.1688  -15.0390   37.0467 N   0  0  0  0  0  0  0  0  0  0  0  0
   35.3521  -15.8265   36.4607 C   0  0  0  0  0  0  0  0  0  0  0  0
   30.5195  -19.1991   34.7490 C   0  0  0  0  0  0  0  0  0  0  0  0
   31.9482  -18.9020   34.9763 C   0  0  0  0  0  0  0  0  0  0  0  0
   32.6410  -19.2682   36.0673 C   0  0  0  0  0  0  0  0  0  0  0  0
   33.8986  -18.8681   36.4101 C   0  0  0  0  0  0  0  0  0  0  0  0
   34.5940  -17.9806   35.5522 C   0  0  0  0  0  0  0  0  0  0  0  0
   33.9142  -17.6150   34.4001 C   0  0  0  0  0  0  0  0  0  0  0  0
   32.6255  -18.0255   34.0457 C   0  0  0  0  0  0  0  0  0  0  0  0
   37.4348  -18.8661   36.0935 N   0  0  0  0  0  0  0  0  0  0  0  0
   37.6429  -19.6285   36.6664 H   0  0  0  0  0  0  0  0  0  0  0  0
   37.8709  -19.0713   34.3683 S   0  0  0  0  0  0  0  0  0  0  0  0
   36.5841  -19.8007   33.8251 O   0  0  0  0  0  0  0  0  0  0  0  0
   37.8732  -17.7630   33.6674 O   0  0  0  0  0  0  0  0  0  0  0  0
   39.1869  -20.0740   34.0483 C   0  0  0  0  0  0  0  0  0  0  0  0
   39.1419  -21.3873   34.3094 C   0  0  0  0  0  0  0  0  0  0  0  0
   40.1040  -22.3077   34.2132 C   0  0  0  0  0  0  0  0  0  0  0  0
   41.3450  -21.8715   33.8025 C   0  0  0  0  0  0  0  0  0  0  0  0
   42.7063  -22.9798   33.6456 Cl  0  0  0  0  0  0  0  0  0  0  0  0
   41.5808  -20.5005   33.5059 C   0  0  0  0  0  0  0  0  0  0  0  0
   40.4778  -19.6195   33.6334 C   0  0  0  0  0  0  0  0  0  0  0  0
   34.0972  -15.5100   36.0325 O   0  0  0  0  0  0  0  0  0  0  0  0
   33.3065  -14.5358   35.9534 C   0  0  0  0  0  0  0  0  0  0  0  0
   33.0102  -13.2174   36.4831 C   0  0  0  0  0  0  0  0  0  0  0  0
   31.9974  -12.6654   37.0477 O   0  0  0  0  0  0  0  0  0  0  0  0
   30.9916  -12.1257   37.6031 C   0  0  0  0  0  0  0  0  0  0  0  0
   30.5550  -12.6327   38.9125 N   0  0  0  0  0  0  0  0  0  0  0  0
   29.5349  -12.1077   39.5887 C   0  0  0  0  0  0  0  0  0  0  0  0
   28.8322  -11.0234   39.0474 C   0  0  0  0  0  0  0  0  0  0  0  0
   27.3474  -10.3076   39.9946 Br  0  0  0  0  0  0  0  0  0  0  0  0
   29.2079  -10.5389   37.8223 C   0  0  0  0  0  0  0  0  0  0  0  0
   30.1833  -11.0939   37.2295 N   0  0  0  0  0  0  0  0  0  0  0  0
  7  8  1  0  0  0
  8  9  2  0  0  0
  9 10  1  0  0  0
 10 11  2  0  0  0
 11  1  1  0  0  0
  1  2  1  0  0  0
  2 14  1  0  0  0
 14 16  1  0  0  0
 16 17  2  0  0  0
 16 18  2  0  0  0
 16 19  1  0  0  0
 19 20  2  0  0  0
 20 21  1  0  0  0
 21 22  2  0  0  0
 22 23  1  0  0  0
 22 24  1  0  0  0
 24 25  2  0  0  0
  2  3  2  0  0  0
  3  4  1  0  0  0
  4  5  2  0  0  0
  5  6  1  0  0  0
  6 26  1  0  0  0
 26 27  1  0  0  0
 27 28  1  0  0  0
 28 29  1  0  0  0
 29 30  1  0  0  0
 30 31  2  0  0  0
 31 32  1  0  0  0
 32 33  2  0  0  0
 33 34  1  0  0  0
 33 35  1  0  0  0
 35 36  2  0  0  0
 11 12  1  0  0  0
 12 13  2  0  0  0
 13  8  1  0  0  0
  6  1  2  0  0  0
 36 30  1  0  0  0
 25 19  1  0  0  0
 14 15  1  0  0  0
M  END
> <minimizedAffinity>
-6.64022

> <CNNscore>
0.1535794586

> <CNNaffinity>
5.7291302681

> <CNN_VS>
0.8798767328

> <CNNaffinity_variance>
0.2114388645

$$$$
[H]c1nc(OC([H])([H])C([H])([H])Oc2nc([H])c(Br)c([H])n2)c(-c2c([H])c([H])c(C([H])([H])[H])c([H])c2[H])c(N([H])S(=O)(=O)c2c([H])c([H])c(Cl)c([H])c2[H])n1


 36 39  0  0  0  0  0  0  0  0999 V2000
   37.8429  -22.2111   39.8313 C   0  0  0  0  0  0  0  0  0  0  0  0
   36.5137  -22.2275   40.0760 C   0  0  0  0  0  0  0  0  0  0  0  0
   36.0911  -22.4164   41.4584 N   0  0  0  0  0  0  0  0  0  0  0  0
   36.9429  -22.5622   42.4302 C   0  0  0  0  0  0  0  0  0  0  0  0
   38.2615  -22.5471   42.2012 N   0  0  0  0  0  0  0  0  0  0  0  0
   38.7024  -22.3970   41.0124 C   0  0  0  0  0  0  0  0  0  0  0  0
   39.0111  -20.8963   34.4349 C   0  0  0  0  0  0  0  0  0  0  0  0
   38.9653  -21.3033   35.8538 C   0  0  0  0  0  0  0  0  0  0  0  0
   38.6554  -22.5370   36.2856 C   0  0  0  0  0  0  0  0  0  0  0  0
   38.4214  -22.9179   37.5738 C   0  0  0  0  0  0  0  0  0  0  0  0
   38.5126  -21.9490   38.6033 C   0  0  0  0  0  0  0  0  0  0  0  0
   38.8664  -20.6740   38.1879 C   0  0  0  0  0  0  0  0  0  0  0  0
   39.1087  -20.2815   36.8679 C   0  0  0  0  0  0  0  0  0  0  0  0
   35.5374  -22.1558   39.1055 N   0  0  0  0  0  0  0  0  0  0  0  0
   35.2243  -22.8359   38.4793 H   0  0  0  0  0  0  0  0  0  0  0  0
   34.7833  -20.5423   38.9136 S   0  0  0  0  0  0  0  0  0  0  0  0
   33.2904  -20.9496   38.6165 O   0  0  0  0  0  0  0  0  0  0  0  0
   34.7172  -19.8346   40.2165 O   0  0  0  0  0  0  0  0  0  0  0  0
   35.3197  -19.6215   37.6082 C   0  0  0  0  0  0  0  0  0  0  0  0
   35.2809  -20.0979   36.3567 C   0  0  0  0  0  0  0  0  0  0  0  0
   35.7431  -19.5593   35.2261 C   0  0  0  0  0  0  0  0  0  0  0  0
   36.3744  -18.3387   35.3299 C   0  0  0  0  0  0  0  0  0  0  0  0
   37.0421  -17.5231   33.9174 Cl  0  0  0  0  0  0  0  0  0  0  0  0
   36.5285  -17.6959   36.5893 C   0  0  0  0  0  0  0  0  0  0  0  0
   35.9853  -18.3603   37.7173 C   0  0  0  0  0  0  0  0  0  0  0  0
   40.0104  -22.4300   40.6298 O   0  0  0  0  0  0  0  0  0  0  0  0
   41.1456  -22.0253   40.9878 C   0  0  0  0  0  0  0  0  0  0  0  0
   42.3309  -21.3123   40.5484 C   0  0  0  0  0  0  0  0  0  0  0  0
   42.6493  -20.6158   39.5174 O   0  0  0  0  0  0  0  0  0  0  0  0
   42.9708  -19.9315   38.4977 C   0  0  0  0  0  0  0  0  0  0  0  0
   42.7336  -20.5030   37.1639 N   0  0  0  0  0  0  0  0  0  0  0  0
   43.0037  -19.8471   36.0368 C   0  0  0  0  0  0  0  0  0  0  0  0
   43.5381  -18.5538   36.1011 C   0  0  0  0  0  0  0  0  0  0  0  0
   43.9658  -17.6399   34.4899 Br  0  0  0  0  0  0  0  0  0  0  0  0
   43.7828  -18.0013   37.3306 C   0  0  0  0  0  0  0  0  0  0  0  0
   43.5101  -18.6871   38.3632 N   0  0  0  0  0  0  0  0  0  0  0  0
  7  8  1  0  0  0
  8  9  2  0  0  0
  9 10  1  0  0  0
 10 11  2  0  0  0
 11  1  1  0  0  0
  1  2  1  0  0  0
  2 14  1  0  0  0
 14 16  1  0  0  0
 16 17  2  0  0  0
 16 18  2  0  0  0
 16 19  1  0  0  0
 19 20  2  0  0  0
 20 21  1  0  0  0
 21 22  2  0  0  0
 22 23  1  0  0  0
 22 24  1  0  0  0
 24 25  2  0  0  0
  2  3  2  0  0  0
  3  4  1  0  0  0
  4  5  2  0  0  0
  5  6  1  0  0  0
  6 26  1  0  0  0
 26 27  1  0  0  0
 27 28  1  0  0  0
 28 29  1  0  0  0
 29 30  1  0  0  0
 30 31  2  0  0  0
 31 32  1  0  0  0
 32 33  2  0  0  0
 33 34  1  0  0  0
 33 35  1  0  0  0
 35 36  2  0  0  0
 11 12  1  0  0  0
 12 13  2  0  0  0
 13  8  1  0  0  0
  6  1  2  0  0  0
 36 30  1  0  0  0
 25 19  1  0  0  0
 14 15  1  0  0  0
M  END
> <minimizedAffinity>
-4.34833

> <CNNscore>
0.1398000121

> <CNNaffinity>
5.3735704422

> <CNN_VS>
0.7512252331

> <CNNaffinity_variance>
0.3408066332

$$$$
[H]c1nc(OC([H])([H])C([H])([H])Oc2nc([H])c(Br)c([H])n2)c(-c2c([H])c([H])c(C([H])([H])[H])c([H])c2[H])c(N([H])S(=O)(=O)c2c([H])c([H])c(Cl)c([H])c2[H])n1


 36 39  0  0  0  0  0  0  0  0999 V2000
   35.7490  -21.2375   37.7751 C   0  0  0  0  0  0  0  0  0  0  0  0
   35.0746  -20.0661   37.7738 C   0  0  0  0  0  0  0  0  0  0  0  0
   33.6707  -20.1039   37.3826 N   0  0  0  0  0  0  0  0  0  0  0  0
   33.0735  -21.2097   37.0480 C   0  0  0  0  0  0  0  0  0  0  0  0
   33.7300  -22.3761   37.0460 N   0  0  0  0  0  0  0  0  0  0  0  0
   34.9651  -22.4154   37.3671 C   0  0  0  0  0  0  0  0  0  0  0  0
   41.1076  -20.6378   39.5473 C   0  0  0  0  0  0  0  0  0  0  0  0
   39.7760  -21.0517   39.0609 C   0  0  0  0  0  0  0  0  0  0  0  0
   39.3959  -21.0427   37.7725 C   0  0  0  0  0  0  0  0  0  0  0  0
   38.1355  -21.2372   37.2901 C   0  0  0  0  0  0  0  0  0  0  0  0
   37.0825  -21.4895   38.2037 C   0  0  0  0  0  0  0  0  0  0  0  0
   37.4549  -21.5394   39.5387 C   0  0  0  0  0  0  0  0  0  0  0  0
   38.7469  -21.3421   40.0354 C   0  0  0  0  0  0  0  0  0  0  0  0
   35.6387  -18.8370   38.0402 N   0  0  0  0  0  0  0  0  0  0  0  0
   35.8106  -18.3976   38.8947 H   0  0  0  0  0  0  0  0  0  0  0  0
   36.0467  -17.8656   36.5915 S   0  0  0  0  0  0  0  0  0  0  0  0
   37.6206  -17.8758   36.6649 O   0  0  0  0  0  0  0  0  0  0  0  0
   35.7335  -18.6162   35.3500 O   0  0  0  0  0  0  0  0  0  0  0  0
   35.5553  -16.2539   36.6145 C   0  0  0  0  0  0  0  0  0  0  0  0
   36.2357  -15.3278   37.3033 C   0  0  0  0  0  0  0  0  0  0  0  0
   35.9483  -14.0412   37.5130 C   0  0  0  0  0  0  0  0  0  0  0  0
   34.7752  -13.5676   36.9666 C   0  0  0  0  0  0  0  0  0  0  0  0
   34.2700  -11.8925   37.1783 Cl  0  0  0  0  0  0  0  0  0  0  0  0
   33.9139  -14.4210   36.2230 C   0  0  0  0  0  0  0  0  0  0  0  0
   34.3321  -15.7651   36.0575 C   0  0  0  0  0  0  0  0  0  0  0  0
   35.7675  -23.5171   37.3428 O   0  0  0  0  0  0  0  0  0  0  0  0
   35.9523  -24.5795   36.6965 C   0  0  0  0  0  0  0  0  0  0  0  0
   36.8730  -25.2727   35.8141 C   0  0  0  0  0  0  0  0  0  0  0  0
   37.9197  -24.9459   35.1457 O   0  0  0  0  0  0  0  0  0  0  0  0
   38.9499  -24.6225   34.4782 C   0  0  0  0  0  0  0  0  0  0  0  0
   39.3410  -25.4633   33.3371 N   0  0  0  0  0  0  0  0  0  0  0  0
   40.3833  -25.1848   32.5563 C   0  0  0  0  0  0  0  0  0  0  0  0
   41.1554  -24.0450   32.8151 C   0  0  0  0  0  0  0  0  0  0  0  0
   42.6700  -23.6773   31.7265 Br  0  0  0  0  0  0  0  0  0  0  0  0
   40.8227  -23.2506   33.8804 C   0  0  0  0  0  0  0  0  0  0  0  0
   39.8225  -23.5813   34.5881 N   0  0  0  0  0  0  0  0  0  0  0  0
  7  8  1  0  0  0
  8  9  2  0  0  0
  9 10  1  0  0  0
 10 11  2  0  0  0
 11  1  1  0  0  0
  1  2  1  0  0  0
  2 14  1  0  0  0
 14 16  1  0  0  0
 16 17  2  0  0  0
 16 18  2  0  0  0
 16 19  1  0  0  0
 19 20  2  0  0  0
 20 21  1  0  0  0
 21 22  2  0  0  0
 22 23  1  0  0  0
 22 24  1  0  0  0
 24 25  2  0  0  0
  2  3  2  0  0  0
  3  4  1  0  0  0
  4  5  2  0  0  0
  5  6  1  0  0  0
  6 26  1  0  0  0
 26 27  1  0  0  0
 27 28  1  0  0  0
 28 29  1  0  0  0
 29 30  1  0  0  0
 30 31  2  0  0  0
 31 32  1  0  0  0
 32 33  2  0  0  0
 33 34  1  0  0  0
 33 35  1  0  0  0
 35 36  2  0  0  0
 11 12  1  0  0  0
 12 13  2  0  0  0
 13  8  1  0  0  0
  6  1  2  0  0  0
 36 30  1  0  0  0
 25 19  1  0  0  0
 14 15  1  0  0  0
M  END
> <minimizedAffinity>
-5.83821

> <CNNscore>
0.1360279322

> <CNNaffinity>
5.2740345001

> <CNN_VS>
0.7174159884

> <CNNaffinity_variance>
0.1351453066

$$$$
[H]c1nc(OC([H])([H])C([H])([H])Oc2nc([H])c(Br)c([H])n2)c(-c2c([H])c([H])c(C([H])([H])[H])c([H])c2[H])c(N([H])S(=O)(=O)c2c([H])c([H])c(Cl)c([H])c2[H])n1


 36 39  0  0  0  0  0  0  0  0999 V2000
   37.7668  -19.5806   35.4291 C   0  0  0  0  0  0  0  0  0  0  0  0
   38.7735  -20.3938   35.0388 C   0  0  0  0  0  0  0  0  0  0  0  0
   40.1115  -20.0819   35.5267 N   0  0  0  0  0  0  0  0  0  0  0  0
   40.3462  -19.0691   36.3079 C   0  0  0  0  0  0  0  0  0  0  0  0
   39.3580  -18.2569   36.7020 N   0  0  0  0  0  0  0  0  0  0  0  0
   38.1627  -18.4643   36.3039 C   0  0  0  0  0  0  0  0  0  0  0  0
   32.1508  -18.7706   35.2921 C   0  0  0  0  0  0  0  0  0  0  0  0
   33.5567  -19.2159   35.2138 C   0  0  0  0  0  0  0  0  0  0  0  0
   34.2066  -19.8711   36.1899 C   0  0  0  0  0  0  0  0  0  0  0  0
   35.5419  -20.1418   36.2447 C   0  0  0  0  0  0  0  0  0  0  0  0
   36.3725  -19.7171   35.1786 C   0  0  0  0  0  0  0  0  0  0  0  0
   35.7201  -19.0691   34.1405 C   0  0  0  0  0  0  0  0  0  0  0  0
   34.3508  -18.7920   34.0812 C   0  0  0  0  0  0  0  0  0  0  0  0
   38.6355  -21.4436   34.1563 N   0  0  0  0  0  0  0  0  0  0  0  0
   38.2406  -21.4650   33.2639 H   0  0  0  0  0  0  0  0  0  0  0  0
   39.1975  -23.0274   34.7761 S   0  0  0  0  0  0  0  0  0  0  0  0
   38.5740  -23.9999   33.7044 O   0  0  0  0  0  0  0  0  0  0  0  0
   40.6632  -23.1733   34.5937 O   0  0  0  0  0  0  0  0  0  0  0  0
   38.5986  -23.4918   36.2812 C   0  0  0  0  0  0  0  0  0  0  0  0
   39.3549  -23.4189   37.3847 C   0  0  0  0  0  0  0  0  0  0  0  0
   39.0880  -23.8252   38.6279 C   0  0  0  0  0  0  0  0  0  0  0  0
   37.8670  -24.4287   38.8377 C   0  0  0  0  0  0  0  0  0  0  0  0
   37.3934  -25.0229   40.4279 Cl  0  0  0  0  0  0  0  0  0  0  0  0
   36.9453  -24.6129   37.7700 C   0  0  0  0  0  0  0  0  0  0  0  0
   37.3364  -24.1287   36.4967 C   0  0  0  0  0  0  0  0  0  0  0  0
   37.0791  -17.6818   36.5714 O   0  0  0  0  0  0  0  0  0  0  0  0
   36.7167  -16.4779   36.5703 C   0  0  0  0  0  0  0  0  0  0  0  0
   36.2924  -15.3781   37.4171 C   0  0  0  0  0  0  0  0  0  0  0  0
   35.2667  -14.6070   37.4688 O   0  0  0  0  0  0  0  0  0  0  0  0
   34.2510  -13.8479   37.5270 C   0  0  0  0  0  0  0  0  0  0  0  0
   33.4818  -13.6067   36.2972 N   0  0  0  0  0  0  0  0  0  0  0  0
   32.3822  -12.8561   36.2666 C   0  0  0  0  0  0  0  0  0  0  0  0
   31.9194  -12.2601   37.4468 C   0  0  0  0  0  0  0  0  0  0  0  0
   30.3761  -11.1515   37.3890 Br  0  0  0  0  0  0  0  0  0  0  0  0
   32.6239  -12.4561   38.6053 C   0  0  0  0  0  0  0  0  0  0  0  0
   33.6685  -13.1754   38.5595 N   0  0  0  0  0  0  0  0  0  0  0  0
  7  8  1  0  0  0
  8  9  2  0  0  0
  9 10  1  0  0  0
 10 11  2  0  0  0
 11  1  1  0  0  0
  1  2  1  0  0  0
  2 14  1  0  0  0
 14 16  1  0  0  0
 16 17  2  0  0  0
 16 18  2  0  0  0
 16 19  1  0  0  0
 19 20  2  0  0  0
 20 21  1  0  0  0
 21 22  2  0  0  0
 22 23  1  0  0  0
 22 24  1  0  0  0
 24 25  2  0  0  0
  2  3  2  0  0  0
  3  4  1  0  0  0
  4  5  2  0  0  0
  5  6  1  0  0  0
  6 26  1  0  0  0
 26 27  1  0  0  0
 27 28  1  0  0  0
 28 29  1  0  0  0
 29 30  1  0  0  0
 30 31  2  0  0  0
 31 32  1  0  0  0
 32 33  2  0  0  0
 33 34  1  0  0  0
 33 35  1  0  0  0
 35 36  2  0  0  0
 11 12  1  0  0  0
 12 13  2  0  0  0
 13  8  1  0  0  0
  6  1  2  0  0  0
 36 30  1  0  0  0
 25 19  1  0  0  0
 14 15  1  0  0  0
M  END
> <minimizedAffinity>
-5.97901

> <CNNscore>
0.1322762668

> <CNNaffinity>
5.5833063126

> <CNN_VS>
0.7385389209

> <CNNaffinity_variance>
0.2491302192

$$$$
[H]c1nc(N([H])[C@@]([H])(c2c([H])c([H])c(Cl)c([H])c2[H])C([H])([H])N([H])C([H])([H])[H])c2nc([H])c([H])c(C(=O)N([H])[H])c2n1


 29 31  0  0  0  0  0  0  0  0999 V2000
   35.1370  -16.9339   36.2608 C   0  0  0  0  0  0  0  0  0  0  0  0
   33.9622  -16.8434   35.6117 N   0  0  0  0  0  0  0  0  0  0  0  0
   33.3782  -15.6358   35.3801 C   0  0  0  0  0  0  0  0  0  0  0  0
   33.9545  -14.4815   35.7921 N   0  0  0  0  0  0  0  0  0  0  0  0
   35.1178  -14.5136   36.4390 C   0  0  0  0  0  0  0  0  0  0  0  0
   35.7061  -13.3383   36.8589 C   0  0  0  0  0  0  0  0  0  0  0  0
   36.9086  -13.4519   37.5213 C   0  0  0  0  0  0  0  0  0  0  0  0
   37.4800  -14.6823   37.7443 C   0  0  0  0  0  0  0  0  0  0  0  0
   36.8785  -15.8028   37.3212 N   0  0  0  0  0  0  0  0  0  0  0  0
   35.7133  -15.7540   36.6748 C   0  0  0  0  0  0  0  0  0  0  0  0
   35.1137  -12.0258   36.6278 C   0  0  0  0  0  0  0  0  0  0  0  0
   35.6159  -11.2123   35.5988 N   0  0  0  0  0  0  0  0  0  0  0  0
   34.1538  -11.5994   37.3346 O   0  0  0  0  0  0  0  0  0  0  0  0
   35.6953  -10.1778   35.8091 H   0  0  0  0  0  0  0  0  0  0  0  0
   35.8905  -11.6143   34.6884 H   0  0  0  0  0  0  0  0  0  0  0  0
   35.7348  -18.2028   36.4925 N   0  0  0  0  0  0  0  0  0  0  0  0
   36.2677  -18.3239   37.3865 H   0  0  0  0  0  0  0  0  0  0  0  0
   35.6222  -19.2894   35.5460 C   0  0  0  0  0  0  0  0  0  0  0  0
   34.2708  -19.8498   35.5754 C   0  0  0  0  0  0  0  0  0  0  0  0
   33.6470  -20.3078   36.7152 C   0  0  0  0  0  0  0  0  0  0  0  0
   32.3700  -20.8269   36.6883 C   0  0  0  0  0  0  0  0  0  0  0  0
   31.6801  -20.8993   35.5005 C   0  0  0  0  0  0  0  0  0  0  0  0
   30.0518  -21.5606   35.4625 Cl  0  0  0  0  0  0  0  0  0  0  0  0
   32.2834  -20.4465   34.3435 C   0  0  0  0  0  0  0  0  0  0  0  0
   33.5564  -19.9344   34.3998 C   0  0  0  0  0  0  0  0  0  0  0  0
   36.0717  -18.8101   34.1881 C   0  0  0  0  0  0  0  0  0  0  0  0
   38.4286  -18.7653   33.6864 C   0  0  0  0  0  0  0  0  0  0  0  0
   37.2060  -19.5105   33.6759 N   0  0  0  0  0  0  0  0  0  0  0  0
   37.3390  -20.3758   34.2144 H   0  0  0  0  0  0  0  0  0  0  0  0
 27 28  1  0  0  0
 28 26  1  0  0  0
 26 18  1  0  0  0
 18 16  1  0  0  0
 16  1  1  0  0  0
  1  2  2  0  0  0
  2  3  1  0  0  0
  3  4  2  0  0  0
  4  5  1  0  0  0
  5  6  2  0  0  0
  6 11  1  0  0  0
 11 12  1  0  0  0
 11 13  2  0  0  0
  6  7  1  0  0  0
  7  8  2  0  0  0
  8  9  1  0  0  0
  9 10  2  0  0  0
 18 19  1  0  0  0
 19 20  2  0  0  0
 20 21  1  0  0  0
 21 22  2  0  0  0
 22 23  1  0  0  0
 22 24  1  0  0  0
 24 25  2  0  0  0
 10  1  1  0  0  0
 25 19  1  0  0  0
 10  5  1  0  0  0
 28 29  1  0  0  0
 16 17  1  0  0  0
 12 14  1  0  0  0
 12 15  1  0  0  0
M  END
> <minimizedAffinity>
-6.95222

> <CNNscore>
0.6220327616

> <CNNaffinity>
5.7205224037

> <CNN_VS>
3.5583522320

> <CNNaffinity_variance>
0.2328254879

$$$$
[H]c1nc(N([H])[C@@]([H])(c2c([H])c([H])c(Cl)c([H])c2[H])C([H])([H])N([H])C([H])([H])[H])c2nc([H])c([H])c(C(=O)N([H])[H])c2n1


 29 31  0  0  0  0  0  0  0  0999 V2000
   36.1089  -17.1479   35.5855 C   0  0  0  0  0  0  0  0  0  0  0  0
   35.0127  -17.7113   35.0466 N   0  0  0  0  0  0  0  0  0  0  0  0
   33.7946  -17.1112   35.1421 C   0  0  0  0  0  0  0  0  0  0  0  0
   33.6382  -15.9274   35.7811 N   0  0  0  0  0  0  0  0  0  0  0  0
   34.6904  -15.3259   36.3324 C   0  0  0  0  0  0  0  0  0  0  0  0
   34.5325  -14.1195   36.9832 C   0  0  0  0  0  0  0  0  0  0  0  0
   35.6667  -13.5586   37.5279 C   0  0  0  0  0  0  0  0  0  0  0  0
   36.8868  -14.1828   37.4194 C   0  0  0  0  0  0  0  0  0  0  0  0
   37.0013  -15.3547   36.7793 N   0  0  0  0  0  0  0  0  0  0  0  0
   35.9378  -15.9446   36.2324 C   0  0  0  0  0  0  0  0  0  0  0  0
   33.2457  -13.4440   37.1045 C   0  0  0  0  0  0  0  0  0  0  0  0
   32.4833  -13.1968   35.9511 N   0  0  0  0  0  0  0  0  0  0  0  0
   32.7965  -13.0732   38.2286 O   0  0  0  0  0  0  0  0  0  0  0  0
   31.9884  -12.2622   35.9019 H   0  0  0  0  0  0  0  0  0  0  0  0
   32.4169  -13.8982   35.1965 H   0  0  0  0  0  0  0  0  0  0  0  0
   37.3743  -17.7866   35.4748 N   0  0  0  0  0  0  0  0  0  0  0  0
   37.8544  -17.7380   34.5447 H   0  0  0  0  0  0  0  0  0  0  0  0
   37.9859  -18.4778   36.5872 C   0  0  0  0  0  0  0  0  0  0  0  0
   37.0587  -19.4635   37.1437 C   0  0  0  0  0  0  0  0  0  0  0  0
   36.0847  -19.1722   38.0735 C   0  0  0  0  0  0  0  0  0  0  0  0
   35.2349  -20.1397   38.5659 C   0  0  0  0  0  0  0  0  0  0  0  0
   35.3446  -21.4400   38.1307 C   0  0  0  0  0  0  0  0  0  0  0  0
   34.2627  -22.6761   38.7564 Cl  0  0  0  0  0  0  0  0  0  0  0  0
   36.3130  -21.7579   37.1986 C   0  0  0  0  0  0  0  0  0  0  0  0
   37.1458  -20.7739   36.7254 C   0  0  0  0  0  0  0  0  0  0  0  0
   39.3127  -19.0448   36.1471 C   0  0  0  0  0  0  0  0  0  0  0  0
   41.0698  -18.7677   34.5209 C   0  0  0  0  0  0  0  0  0  0  0  0
   39.6680  -18.7061   34.8060 N   0  0  0  0  0  0  0  0  0  0  0  0
   39.1689  -19.3285   34.1579 H   0  0  0  0  0  0  0  0  0  0  0  0
 27 28  1  0  0  0
 28 26  1  0  0  0
 26 18  1  0  0  0
 18 16  1  0  0  0
 16  1  1  0  0  0
  1  2  2  0  0  0
  2  3  1  0  0  0
  3  4  2  0  0  0
  4  5  1  0  0  0
  5  6  2  0  0  0
  6 11  1  0  0  0
 11 12  1  0  0  0
 11 13  2  0  0  0
  6  7  1  0  0  0
  7  8  2  0  0  0
  8  9  1  0  0  0
  9 10  2  0  0  0
 18 19  1  0  0  0
 19 20  2  0  0  0
 20 21  1  0  0  0
 21 22  2  0  0  0
 22 23  1  0  0  0
 22 24  1  0  0  0
 24 25  2  0  0  0
 10  1  1  0  0  0
 25 19  1  0  0  0
 10  5  1  0  0  0
 28 29  1  0  0  0
 16 17  1  0  0  0
 12 14  1  0  0  0
 12 15  1  0  0  0
M  END
> <minimizedAffinity>
-6.59776

> <CNNscore>
0.4842534661

> <CNNaffinity>
5.4005484581

> <CNN_VS>
2.6152343750

> <CNNaffinity_variance>
0.3394814730

$$$$
[H]c1nc(N([H])[C@@]([H])(c2c([H])c([H])c(Cl)c([H])c2[H])C([H])([H])N([H])C([H])([H])[H])c2nc([H])c([H])c(C(=O)N([H])[H])c2n1


 29 31  0  0  0  0  0  0  0  0999 V2000
   36.1783  -16.9739   35.4564 C   0  0  0  0  0  0  0  0  0  0  0  0
   35.0601  -17.5827   35.0222 N   0  0  0  0  0  0  0  0  0  0  0  0
   33.8313  -17.0456   35.2555 C   0  0  0  0  0  0  0  0  0  0  0  0
   33.6859  -15.8810   35.9314 N   0  0  0  0  0  0  0  0  0  0  0  0
   34.7598  -15.2365   36.3832 C   0  0  0  0  0  0  0  0  0  0  0  0
   34.6129  -14.0497   37.0715 C   0  0  0  0  0  0  0  0  0  0  0  0
   35.7695  -13.4415   37.5074 C   0  0  0  0  0  0  0  0  0  0  0  0
   37.0002  -14.0024   37.2605 C   0  0  0  0  0  0  0  0  0  0  0  0
   37.1033  -15.1571   36.5880 N   0  0  0  0  0  0  0  0  0  0  0  0
   36.0181  -15.7907   36.1420 C   0  0  0  0  0  0  0  0  0  0  0  0
   33.3149  -13.4411   37.3391 C   0  0  0  0  0  0  0  0  0  0  0  0
   32.4516  -13.1552   36.2687 N   0  0  0  0  0  0  0  0  0  0  0  0
   32.9450  -13.1627   38.5175 O   0  0  0  0  0  0  0  0  0  0  0  0
   31.9182  -12.2423   36.3213 H   0  0  0  0  0  0  0  0  0  0  0  0
   32.3512  -13.8095   35.4765 H   0  0  0  0  0  0  0  0  0  0  0  0
   37.4544  -17.5470   35.2022 N   0  0  0  0  0  0  0  0  0  0  0  0
   38.1332  -16.9744   34.6462 H   0  0  0  0  0  0  0  0  0  0  0  0
   37.8155  -18.8615   35.6827 C   0  0  0  0  0  0  0  0  0  0  0  0
   39.2690  -19.0279   35.6610 C   0  0  0  0  0  0  0  0  0  0  0  0
   40.0525  -19.1421   36.7885 C   0  0  0  0  0  0  0  0  0  0  0  0
   41.4202  -19.2981   36.7126 C   0  0  0  0  0  0  0  0  0  0  0  0
   42.0419  -19.3436   35.4864 C   0  0  0  0  0  0  0  0  0  0  0  0
   43.7856  -19.5424   35.3859 Cl  0  0  0  0  0  0  0  0  0  0  0  0
   41.2787  -19.2315   34.3406 C   0  0  0  0  0  0  0  0  0  0  0  0
   39.9183  -19.0769   34.4461 C   0  0  0  0  0  0  0  0  0  0  0  0
   37.1797  -19.0860   37.0321 C   0  0  0  0  0  0  0  0  0  0  0  0
   35.0528  -19.7995   37.9130 C   0  0  0  0  0  0  0  0  0  0  0  0
   36.1433  -20.0684   37.0249 N   0  0  0  0  0  0  0  0  0  0  0  0
   35.7779  -20.1655   36.0691 H   0  0  0  0  0  0  0  0  0  0  0  0
 27 28  1  0  0  0
 28 26  1  0  0  0
 26 18  1  0  0  0
 18 16  1  0  0  0
 16  1  1  0  0  0
  1  2  2  0  0  0
  2  3  1  0  0  0
  3  4  2  0  0  0
  4  5  1  0  0  0
  5  6  2  0  0  0
  6 11  1  0  0  0
 11 12  1  0  0  0
 11 13  2  0  0  0
  6  7  1  0  0  0
  7  8  2  0  0  0
  8  9  1  0  0  0
  9 10  2  0  0  0
 18 19  1  0  0  0
 19 20  2  0  0  0
 20 21  1  0  0  0
 21 22  2  0  0  0
 22 23  1  0  0  0
 22 24  1  0  0  0
 24 25  2  0  0  0
 10  1  1  0  0  0
 25 19  1  0  0  0
 10  5  1  0  0  0
 28 29  1  0  0  0
 16 17  1  0  0  0
 12 14  1  0  0  0
 12 15  1  0  0  0
M  END
> <minimizedAffinity>
-6.68207

> <CNNscore>
0.4383105040

> <CNNaffinity>
5.2704668045

> <CNN_VS>
2.3101010323

> <CNNaffinity_variance>
0.3246482611

$$$$
[H]c1nc(N([H])[C@@]([H])(c2c([H])c([H])c(Cl)c([H])c2[H])C([H])([H])N([H])C([H])([H])[H])c2nc([H])c([H])c(C(=O)N([H])[H])c2n1


 29 31  0  0  0  0  0  0  0  0999 V2000
   36.7562  -15.7956   36.5148 C   0  0  0  0  0  0  0  0  0  0  0  0
   37.6554  -15.2492   37.3530 N   0  0  0  0  0  0  0  0  0  0  0  0
   37.3688  -14.1153   38.0496 C   0  0  0  0  0  0  0  0  0  0  0  0
   36.1714  -13.4945   37.9274 N   0  0  0  0  0  0  0  0  0  0  0  0
   35.2447  -13.9930   37.1115 C   0  0  0  0  0  0  0  0  0  0  0  0
   34.0243  -13.3616   36.9865 C   0  0  0  0  0  0  0  0  0  0  0  0
   33.1171  -13.9366   36.1239 C   0  0  0  0  0  0  0  0  0  0  0  0
   33.4283  -15.0821   35.4302 C   0  0  0  0  0  0  0  0  0  0  0  0
   34.6248  -15.6675   35.5778 N   0  0  0  0  0  0  0  0  0  0  0  0
   35.5426  -15.1557   36.3988 C   0  0  0  0  0  0  0  0  0  0  0  0
   33.6785  -12.1476   37.7171 C   0  0  0  0  0  0  0  0  0  0  0  0
   34.0410  -10.8971   37.1904 N   0  0  0  0  0  0  0  0  0  0  0  0
   33.0570  -12.1931   38.8191 O   0  0  0  0  0  0  0  0  0  0  0  0
   34.3883  -10.1747   37.8820 H   0  0  0  0  0  0  0  0  0  0  0  0
   33.9685  -10.7042   36.1788 H   0  0  0  0  0  0  0  0  0  0  0  0
   37.0704  -16.9815   35.7964 N   0  0  0  0  0  0  0  0  0  0  0  0
   37.4646  -16.8660   34.8325 H   0  0  0  0  0  0  0  0  0  0  0  0
   36.8609  -18.2973   36.3567 C   0  0  0  0  0  0  0  0  0  0  0  0
   35.6335  -18.8872   35.8214 C   0  0  0  0  0  0  0  0  0  0  0  0
   35.3373  -18.9731   34.4786 C   0  0  0  0  0  0  0  0  0  0  0  0
   34.1648  -19.5400   34.0261 C   0  0  0  0  0  0  0  0  0  0  0  0
   33.2499  -20.0406   34.9231 C   0  0  0  0  0  0  0  0  0  0  0  0
   31.7540  -20.7641   34.3497 Cl  0  0  0  0  0  0  0  0  0  0  0  0
   33.5234  -19.9666   36.2749 C   0  0  0  0  0  0  0  0  0  0  0  0
   34.6992  -19.3965   36.6973 C   0  0  0  0  0  0  0  0  0  0  0  0
   38.1009  -19.1289   36.1413 C   0  0  0  0  0  0  0  0  0  0  0  0
   40.2343  -19.2803   35.0301 C   0  0  0  0  0  0  0  0  0  0  0  0
   39.1257  -18.4566   35.4083 N   0  0  0  0  0  0  0  0  0  0  0  0
   38.7168  -18.0400   34.5623 H   0  0  0  0  0  0  0  0  0  0  0  0
 27 28  1  0  0  0
 28 26  1  0  0  0
 26 18  1  0  0  0
 18 16  1  0  0  0
 16  1  1  0  0  0
  1  2  2  0  0  0
  2  3  1  0  0  0
  3  4  2  0  0  0
  4  5  1  0  0  0
  5  6  2  0  0  0
  6 11  1  0  0  0
 11 12  1  0  0  0
 11 13  2  0  0  0
  6  7  1  0  0  0
  7  8  2  0  0  0
  8  9  1  0  0  0
  9 10  2  0  0  0
 18 19  1  0  0  0
 19 20  2  0  0  0
 20 21  1  0  0  0
 21 22  2  0  0  0
 22 23  1  0  0  0
 22 24  1  0  0  0
 24 25  2  0  0  0
 10  1  1  0  0  0
 25 19  1  0  0  0
 10  5  1  0  0  0
 28 29  1  0  0  0
 16 17  1  0  0  0
 12 14  1  0  0  0
 12 15  1  0  0  0
M  END
> <minimizedAffinity>
-6.09425

> <CNNscore>
0.4282217324

> <CNNaffinity>
5.5560283661

> <CNN_VS>
2.3792121410

> <CNNaffinity_variance>
0.2509438694

$$$$
[H]c1nc(N([H])[C@@]([H])(c2c([H])c([H])c(Cl)c([H])c2[H])C([H])([H])N([H])C([H])([H])[H])c2nc([H])c([H])c(C(=O)N([H])[H])c2n1


 29 31  0  0  0  0  0  0  0  0999 V2000
   35.6784  -17.1619   36.5450 C   0  0  0  0  0  0  0  0  0  0  0  0
   34.5059  -17.3363   35.9090 N   0  0  0  0  0  0  0  0  0  0  0  0
   33.7231  -16.2744   35.5737 C   0  0  0  0  0  0  0  0  0  0  0  0
   34.0920  -15.0044   35.8658 N   0  0  0  0  0  0  0  0  0  0  0  0
   35.2432  -14.7748   36.4943 C   0  0  0  0  0  0  0  0  0  0  0  0
   35.6204  -13.4814   36.7919 C   0  0  0  0  0  0  0  0  0  0  0  0
   36.8242  -13.3235   37.4428 C   0  0  0  0  0  0  0  0  0  0  0  0
   37.5985  -14.4109   37.7719 C   0  0  0  0  0  0  0  0  0  0  0  0
   37.1989  -15.6531   37.4661 N   0  0  0  0  0  0  0  0  0  0  0  0
   36.0430  -15.8666   36.8365 C   0  0  0  0  0  0  0  0  0  0  0  0
   34.8113  -12.3179   36.4474 C   0  0  0  0  0  0  0  0  0  0  0  0
   33.4401  -12.3151   36.7516 N   0  0  0  0  0  0  0  0  0  0  0  0
   35.3163  -11.3060   35.8785 O   0  0  0  0  0  0  0  0  0  0  0  0
   32.7949  -11.8939   36.0255 H   0  0  0  0  0  0  0  0  0  0  0  0
   33.0912  -12.7068   37.6407 H   0  0  0  0  0  0  0  0  0  0  0  0
   36.4854  -18.2816   36.8859 N   0  0  0  0  0  0  0  0  0  0  0  0
   36.2770  -18.7623   37.7933 H   0  0  0  0  0  0  0  0  0  0  0  0
   37.5514  -18.7495   36.0292 C   0  0  0  0  0  0  0  0  0  0  0  0
   38.6310  -19.3257   36.8314 C   0  0  0  0  0  0  0  0  0  0  0  0
   39.9491  -18.9326   36.7526 C   0  0  0  0  0  0  0  0  0  0  0  0
   40.9290  -19.5087   37.5328 C   0  0  0  0  0  0  0  0  0  0  0  0
   40.6042  -20.5064   38.4224 C   0  0  0  0  0  0  0  0  0  0  0  0
   41.8511  -21.2430   39.4187 Cl  0  0  0  0  0  0  0  0  0  0  0  0
   39.2896  -20.9184   38.5205 C   0  0  0  0  0  0  0  0  0  0  0  0
   38.3343  -20.3270   37.7309 C   0  0  0  0  0  0  0  0  0  0  0  0
   36.9775  -19.6809   34.9905 C   0  0  0  0  0  0  0  0  0  0  0  0
   38.2368  -18.3550   33.4205 C   0  0  0  0  0  0  0  0  0  0  0  0
   37.6476  -19.6226   33.7307 N   0  0  0  0  0  0  0  0  0  0  0  0
   38.3785  -20.3448   33.7043 H   0  0  0  0  0  0  0  0  0  0  0  0
 27 28  1  0  0  0
 28 26  1  0  0  0
 26 18  1  0  0  0
 18 16  1  0  0  0
 16  1  1  0  0  0
  1  2  2  0  0  0
  2  3  1  0  0  0
  3  4  2  0  0  0
  4  5  1  0  0  0
  5  6  2  0  0  0
  6 11  1  0  0  0
 11 12  1  0  0  0
 11 13  2  0  0  0
  6  7  1  0  0  0
  7  8  2  0  0  0
  8  9  1  0  0  0
  9 10  2  0  0  0
 18 19  1  0  0  0
 19 20  2  0  0  0
 20 21  1  0  0  0
 21 22  2  0  0  0
 22 23  1  0  0  0
 22 24  1  0  0  0
 24 25  2  0  0  0
 10  1  1  0  0  0
 25 19  1  0  0  0
 10  5  1  0  0  0
 28 29  1  0  0  0
 16 17  1  0  0  0
 12 14  1  0  0  0
 12 15  1  0  0  0
M  END
> <minimizedAffinity>
-6.56919

> <CNNscore>
0.4272857010

> <CNNaffinity>
5.3587746620

> <CNN_VS>
2.2897276878

> <CNNaffinity_variance>
0.2930284441

$$$$
[H]c1nc(N([H])[C@@]([H])(c2c([H])c([H])c(Cl)c([H])c2[H])C([H])([H])N([H])C([H])([H])[H])c2nc([H])c([H])c(C(=O)N([H])[H])c2n1


 29 31  0  0  0  0  0  0  0  0999 V2000
   35.8442  -17.3009   35.9160 C   0  0  0  0  0  0  0  0  0  0  0  0
   34.6503  -17.5695   35.3574 N   0  0  0  0  0  0  0  0  0  0  0  0
   33.6284  -16.6722   35.4169 C   0  0  0  0  0  0  0  0  0  0  0  0
   33.7723  -15.4775   36.0385 N   0  0  0  0  0  0  0  0  0  0  0  0
   34.9334  -15.1605   36.6080 C   0  0  0  0  0  0  0  0  0  0  0  0
   35.0814  -13.9435   37.2411 C   0  0  0  0  0  0  0  0  0  0  0  0
   36.3111  -13.6870   37.8064 C   0  0  0  0  0  0  0  0  0  0  0  0
   37.3290  -14.6084   37.7342 C   0  0  0  0  0  0  0  0  0  0  0  0
   37.1478  -15.7806   37.1103 N   0  0  0  0  0  0  0  0  0  0  0  0
   35.9787  -16.0835   36.5449 C   0  0  0  0  0  0  0  0  0  0  0  0
   34.0122  -12.9550   37.3239 C   0  0  0  0  0  0  0  0  0  0  0  0
   32.7244  -13.3607   37.7107 N   0  0  0  0  0  0  0  0  0  0  0  0
   34.2168  -11.7350   37.0546 O   0  0  0  0  0  0  0  0  0  0  0  0
   31.9133  -12.9178   37.1943 H   0  0  0  0  0  0  0  0  0  0  0  0
   32.5884  -14.0562   38.4615 H   0  0  0  0  0  0  0  0  0  0  0  0
   36.9020  -18.2480   35.8428 N   0  0  0  0  0  0  0  0  0  0  0  0
   37.3078  -18.4389   34.8959 H   0  0  0  0  0  0  0  0  0  0  0  0
   37.4072  -18.9274   37.0144 C   0  0  0  0  0  0  0  0  0  0  0  0
   36.3991  -19.8475   37.5415 C   0  0  0  0  0  0  0  0  0  0  0  0
   35.7108  -19.6506   38.7186 C   0  0  0  0  0  0  0  0  0  0  0  0
   34.7686  -20.5499   39.1709 C   0  0  0  0  0  0  0  0  0  0  0  0
   34.4917  -21.6832   38.4422 C   0  0  0  0  0  0  0  0  0  0  0  0
   33.2911  -22.8319   39.0157 Cl  0  0  0  0  0  0  0  0  0  0  0  0
   35.1681  -21.9037   37.2583 C   0  0  0  0  0  0  0  0  0  0  0  0
   36.1015  -20.9911   36.8320 C   0  0  0  0  0  0  0  0  0  0  0  0
   38.7293  -19.5721   36.6796 C   0  0  0  0  0  0  0  0  0  0  0  0
   41.0143  -18.9059   37.0584 C   0  0  0  0  0  0  0  0  0  0  0  0
   39.7719  -18.6374   36.3992 N   0  0  0  0  0  0  0  0  0  0  0  0
   39.9333  -18.6072   35.3845 H   0  0  0  0  0  0  0  0  0  0  0  0
 27 28  1  0  0  0
 28 26  1  0  0  0
 26 18  1  0  0  0
 18 16  1  0  0  0
 16  1  1  0  0  0
  1  2  2  0  0  0
  2  3  1  0  0  0
  3  4  2  0  0  0
  4  5  1  0  0  0
  5  6  2  0  0  0
  6 11  1  0  0  0
 11 12  1  0  0  0
 11 13  2  0  0  0
  6  7  1  0  0  0
  7  8  2  0  0  0
  8  9  1  0  0  0
  9 10  2  0  0  0
 18 19  1  0  0  0
 19 20  2  0  0  0
 20 21  1  0  0  0
 21 22  2  0  0  0
 22 23  1  0  0  0
 22 24  1  0  0  0
 24 25  2  0  0  0
 10  1  1  0  0  0
 25 19  1  0  0  0
 10  5  1  0  0  0
 28 29  1  0  0  0
 16 17  1  0  0  0
 12 14  1  0  0  0
 12 15  1  0  0  0
M  END
> <minimizedAffinity>
-5.98800

> <CNNscore>
0.3406888843

> <CNNaffinity>
5.3374137878

> <CNN_VS>
1.8183975220

> <CNNaffinity_variance>
0.2456654310

$$$$
[H]c1nc(N([H])[C@@]([H])(c2c([H])c([H])c(Cl)c([H])c2[H])C([H])([H])N([H])C([H])([H])[H])c2nc([H])c([H])c(C(=O)N([H])[H])c2n1


 29 31  0  0  0  0  0  0  0  0999 V2000
   36.4914  -16.3748   36.5997 C   0  0  0  0  0  0  0  0  0  0  0  0
   37.5147  -15.8578   37.3035 N   0  0  0  0  0  0  0  0  0  0  0  0
   37.4846  -14.5708   37.7458 C   0  0  0  0  0  0  0  0  0  0  0  0
   36.4271  -13.7624   37.4961 N   0  0  0  0  0  0  0  0  0  0  0  0
   35.3871  -14.2234   36.8042 C   0  0  0  0  0  0  0  0  0  0  0  0
   34.3089  -13.4009   36.5496 C   0  0  0  0  0  0  0  0  0  0  0  0
   33.2712  -13.9486   35.8280 C   0  0  0  0  0  0  0  0  0  0  0  0
   33.3233  -15.2512   35.3911 C   0  0  0  0  0  0  0  0  0  0  0  0
   34.3880  -16.0202   35.6580 N   0  0  0  0  0  0  0  0  0  0  0  0
   35.4220  -15.5437   36.3522 C   0  0  0  0  0  0  0  0  0  0  0  0
   34.2378  -12.0183   37.0082 C   0  0  0  0  0  0  0  0  0  0  0  0
   34.9602  -11.0257   36.3258 N   0  0  0  0  0  0  0  0  0  0  0  0
   33.5381  -11.6889   38.0105 O   0  0  0  0  0  0  0  0  0  0  0  0
   35.4282  -10.2864   36.9219 H   0  0  0  0  0  0  0  0  0  0  0  0
   35.0246  -11.0277   35.2955 H   0  0  0  0  0  0  0  0  0  0  0  0
   36.5376  -17.7217   36.1471 N   0  0  0  0  0  0  0  0  0  0  0  0
   36.0575  -17.9382   35.2413 H   0  0  0  0  0  0  0  0  0  0  0  0
   37.2130  -18.7598   36.8924 C   0  0  0  0  0  0  0  0  0  0  0  0
   36.2374  -19.6718   37.4902 C   0  0  0  0  0  0  0  0  0  0  0  0
   35.7682  -20.8135   36.8782 C   0  0  0  0  0  0  0  0  0  0  0  0
   34.8477  -21.6404   37.4865 C   0  0  0  0  0  0  0  0  0  0  0  0
   34.3704  -21.3363   38.7402 C   0  0  0  0  0  0  0  0  0  0  0  0
   33.1969  -22.3884   39.5187 Cl  0  0  0  0  0  0  0  0  0  0  0  0
   34.8253  -20.1972   39.3752 C   0  0  0  0  0  0  0  0  0  0  0  0
   35.7421  -19.3918   38.7456 C   0  0  0  0  0  0  0  0  0  0  0  0
   38.2290  -19.4276   35.9993 C   0  0  0  0  0  0  0  0  0  0  0  0
   39.6272  -18.8842   34.1129 C   0  0  0  0  0  0  0  0  0  0  0  0
   39.1712  -18.5234   35.4214 N   0  0  0  0  0  0  0  0  0  0  0  0
   38.7561  -17.5840   35.3818 H   0  0  0  0  0  0  0  0  0  0  0  0
 27 28  1  0  0  0
 28 26  1  0  0  0
 26 18  1  0  0  0
 18 16  1  0  0  0
 16  1  1  0  0  0
  1  2  2  0  0  0
  2  3  1  0  0  0
  3  4  2  0  0  0
  4  5  1  0  0  0
  5  6  2  0  0  0
  6 11  1  0  0  0
 11 12  1  0  0  0
 11 13  2  0  0  0
  6  7  1  0  0  0
  7  8  2  0  0  0
  8  9  1  0  0  0
  9 10  2  0  0  0
 18 19  1  0  0  0
 19 20  2  0  0  0
 20 21  1  0  0  0
 21 22  2  0  0  0
 22 23  1  0  0  0
 22 24  1  0  0  0
 24 25  2  0  0  0
 10  1  1  0  0  0
 25 19  1  0  0  0
 10  5  1  0  0  0
 28 29  1  0  0  0
 16 17  1  0  0  0
 12 14  1  0  0  0
 12 15  1  0  0  0
M  END
> <minimizedAffinity>
-5.19923

> <CNNscore>
0.2800182104

> <CNNaffinity>
5.3169813156

> <CNN_VS>
1.4888515472

> <CNNaffinity_variance>
0.1759825647

$$$$
[H]c1nc(N([H])[C@@]([H])(c2c([H])c([H])c(Cl)c([H])c2[H])C([H])([H])N([H])C([H])([H])[H])c2nc([H])c([H])c(C(=O)N([H])[H])c2n1


 29 31  0  0  0  0  0  0  0  0999 V2000
   36.6754  -15.9171   37.0726 C   0  0  0  0  0  0  0  0  0  0  0  0
   37.7692  -15.2990   37.5535 N   0  0  0  0  0  0  0  0  0  0  0  0
   37.8295  -13.9418   37.6386 C   0  0  0  0  0  0  0  0  0  0  0  0
   36.7945  -13.1624   37.2442 N   0  0  0  0  0  0  0  0  0  0  0  0
   35.6875  -13.7225   36.7607 C   0  0  0  0  0  0  0  0  0  0  0  0
   34.6323  -12.9295   36.3590 C   0  0  0  0  0  0  0  0  0  0  0  0
   33.5214  -13.5810   35.8699 C   0  0  0  0  0  0  0  0  0  0  0  0
   33.4828  -14.9531   35.7928 C   0  0  0  0  0  0  0  0  0  0  0  0
   34.5279  -15.6905   36.1930 N   0  0  0  0  0  0  0  0  0  0  0  0
   35.6298  -15.1146   36.6749 C   0  0  0  0  0  0  0  0  0  0  0  0
   34.6572  -11.4733   36.4368 C   0  0  0  0  0  0  0  0  0  0  0  0
   33.8277  -10.8162   37.3602 N   0  0  0  0  0  0  0  0  0  0  0  0
   35.4113  -10.7837   35.6894 O   0  0  0  0  0  0  0  0  0  0  0  0
   33.3643   -9.9237   37.0290 H   0  0  0  0  0  0  0  0  0  0  0  0
   33.6845  -11.1940   38.3102 H   0  0  0  0  0  0  0  0  0  0  0  0
   36.6277  -17.3358   36.9926 N   0  0  0  0  0  0  0  0  0  0  0  0
   35.9493  -17.8273   37.6218 H   0  0  0  0  0  0  0  0  0  0  0  0
   37.4718  -18.0830   36.0879 C   0  0  0  0  0  0  0  0  0  0  0  0
   38.2602  -19.0691   36.8275 C   0  0  0  0  0  0  0  0  0  0  0  0
   39.6373  -19.1092   36.8383 C   0  0  0  0  0  0  0  0  0  0  0  0
   40.3328  -20.0607   37.5537 C   0  0  0  0  0  0  0  0  0  0  0  0
   39.6530  -21.0069   38.2848 C   0  0  0  0  0  0  0  0  0  0  0  0
   40.5366  -22.2215   39.1981 Cl  0  0  0  0  0  0  0  0  0  0  0  0
   38.2719  -20.9881   38.2905 C   0  0  0  0  0  0  0  0  0  0  0  0
   37.6052  -20.0289   37.5686 C   0  0  0  0  0  0  0  0  0  0  0  0
   36.6220  -18.6615   34.9838 C   0  0  0  0  0  0  0  0  0  0  0  0
   38.3960  -18.3325   33.3859 C   0  0  0  0  0  0  0  0  0  0  0  0
   36.9983  -18.2243   33.6774 N   0  0  0  0  0  0  0  0  0  0  0  0
   36.4699  -18.7604   32.9776 H   0  0  0  0  0  0  0  0  0  0  0  0
 27 28  1  0  0  0
 28 26  1  0  0  0
 26 18  1  0  0  0
 18 16  1  0  0  0
 16  1  1  0  0  0
  1  2  2  0  0  0
  2  3  1  0  0  0
  3  4  2  0  0  0
  4  5  1  0  0  0
  5  6  2  0  0  0
  6 11  1  0  0  0
 11 12  1  0  0  0
 11 13  2  0  0  0
  6  7  1  0  0  0
  7  8  2  0  0  0
  8  9  1  0  0  0
  9 10  2  0  0  0
 18 19  1  0  0  0
 19 20  2  0  0  0
 20 21  1  0  0  0
 21 22  2  0  0  0
 22 23  1  0  0  0
 22 24  1  0  0  0
 24 25  2  0  0  0
 10  1  1  0  0  0
 25 19  1  0  0  0
 10  5  1  0  0  0
 28 29  1  0  0  0
 16 17  1  0  0  0
 12 14  1  0  0  0
 12 15  1  0  0  0
M  END
> <minimizedAffinity>
-5.92686

> <CNNscore>
0.2249253988

> <CNNaffinity>
5.2865562439

> <CNN_VS>
1.1890807152

> <CNNaffinity_variance>
0.2342975140

$$$$
[H]c1nc(N([H])[C@@]([H])(c2c([H])c([H])c(Cl)c([H])c2[H])C([H])([H])N([H])C([H])([H])[H])c2nc([H])c([H])c(C(=O)N([H])[H])c2n1


 29 31  0  0  0  0  0  0  0  0999 V2000
   35.8269  -17.2669   36.1947 C   0  0  0  0  0  0  0  0  0  0  0  0
   34.6320  -17.4724   35.6119 N   0  0  0  0  0  0  0  0  0  0  0  0
   33.6994  -16.4827   35.5522 C   0  0  0  0  0  0  0  0  0  0  0  0
   33.9363  -15.2560   36.0751 N   0  0  0  0  0  0  0  0  0  0  0  0
   35.1027  -14.9985   36.6633 C   0  0  0  0  0  0  0  0  0  0  0  0
   35.3454  -13.7490   37.1960 C   0  0  0  0  0  0  0  0  0  0  0  0
   36.5745  -13.5582   37.7880 C   0  0  0  0  0  0  0  0  0  0  0  0
   37.5013  -14.5726   37.8370 C   0  0  0  0  0  0  0  0  0  0  0  0
   37.2295  -15.7737   37.3083 N   0  0  0  0  0  0  0  0  0  0  0  0
   36.0564  -16.0162   36.7226 C   0  0  0  0  0  0  0  0  0  0  0  0
   34.3737  -12.6625   37.1498 C   0  0  0  0  0  0  0  0  0  0  0  0
   34.6135  -11.5555   36.3193 N   0  0  0  0  0  0  0  0  0  0  0  0
   33.3145  -12.6923   37.8427 O   0  0  0  0  0  0  0  0  0  0  0  0
   34.3581  -10.6056   36.7108 H   0  0  0  0  0  0  0  0  0  0  0  0
   35.0189  -11.6746   35.3773 H   0  0  0  0  0  0  0  0  0  0  0  0
   36.7910  -18.3106   36.2465 N   0  0  0  0  0  0  0  0  0  0  0  0
   37.7494  -18.0943   35.8826 H   0  0  0  0  0  0  0  0  0  0  0  0
   36.4787  -19.6192   36.7751 C   0  0  0  0  0  0  0  0  0  0  0  0
   37.7030  -20.4015   36.9486 C   0  0  0  0  0  0  0  0  0  0  0  0
   38.9674  -19.8577   37.0104 C   0  0  0  0  0  0  0  0  0  0  0  0
   40.0899  -20.6408   37.1759 C   0  0  0  0  0  0  0  0  0  0  0  0
   39.9678  -22.0066   37.2847 C   0  0  0  0  0  0  0  0  0  0  0  0
   41.3970  -23.0082   37.4958 Cl  0  0  0  0  0  0  0  0  0  0  0  0
   38.7110  -22.5764   37.2260 C   0  0  0  0  0  0  0  0  0  0  0  0
   37.6104  -21.7721   37.0604 C   0  0  0  0  0  0  0  0  0  0  0  0
   35.6535  -19.4616   38.0280 C   0  0  0  0  0  0  0  0  0  0  0  0
   34.0239  -21.1363   38.6182 C   0  0  0  0  0  0  0  0  0  0  0  0
   34.3118  -19.9329   37.8976 N   0  0  0  0  0  0  0  0  0  0  0  0
   33.6646  -19.1968   38.2071 H   0  0  0  0  0  0  0  0  0  0  0  0
 27 28  1  0  0  0
 28 26  1  0  0  0
 26 18  1  0  0  0
 18 16  1  0  0  0
 16  1  1  0  0  0
  1  2  2  0  0  0
  2  3  1  0  0  0
  3  4  2  0  0  0
  4  5  1  0  0  0
  5  6  2  0  0  0
  6 11  1  0  0  0
 11 12  1  0  0  0
 11 13  2  0  0  0
  6  7  1  0  0  0
  7  8  2  0  0  0
  8  9  1  0  0  0
  9 10  2  0  0  0
 18 19  1  0  0  0
 19 20  2  0  0  0
 20 21  1  0  0  0
 21 22  2  0  0  0
 22 23  1  0  0  0
 22 24  1  0  0  0
 24 25  2  0  0  0
 10  1  1  0  0  0
 25 19  1  0  0  0
 10  5  1  0  0  0
 28 29  1  0  0  0
 16 17  1  0  0  0
 12 14  1  0  0  0
 12 15  1  0  0  0
M  END
> <minimizedAffinity>
-5.70065

> <CNNscore>
0.2193215787

> <CNNaffinity>
5.0749173164

> <CNN_VS>
1.1130388975

> <CNNaffinity_variance>
0.2572776079

$$$$
[H]Oc1c(OC([H])([H])[H])c(OC([H])([H])[H])c2c3c1-c1c([H])c([H])c([H])c([H])c1C([H])([H])[C@@]3([H])N([H])C([H])([H])C2([H])[H]


 24 27  0  0  0  0  0  0  0  0999 V2000
   34.5898  -20.8565   38.1281 C   0  0  0  0  0  0  0  0  0  0  0  0
   33.3265  -21.3598   37.8497 C   0  0  0  0  0  0  0  0  0  0  0  0
   32.9396  -22.4244   38.6187 O   0  0  0  0  0  0  0  0  0  0  0  0
   32.5903  -20.7616   36.8522 C   0  0  0  0  0  0  0  0  0  0  0  0
   33.0740  -19.6908   36.1342 C   0  0  0  0  0  0  0  0  0  0  0  0
   34.3442  -19.2159   36.4447 C   0  0  0  0  0  0  0  0  0  0  0  0
   35.1094  -19.7802   37.4287 C   0  0  0  0  0  0  0  0  0  0  0  0
   34.8535  -18.0716   35.6690 C   0  0  0  0  0  0  0  0  0  0  0  0
   33.8151  -17.1167   35.2221 C   0  0  0  0  0  0  0  0  0  0  0  0
   32.5418  -17.6333   34.9467 N   0  0  0  0  0  0  0  0  0  0  0  0
   32.3690  -19.0578   35.0446 C   0  0  0  0  0  0  0  0  0  0  0  0
   30.9271  -19.3519   34.9527 C   0  0  0  0  0  0  0  0  0  0  0  0
   30.4720  -20.5758   35.6181 C   0  0  0  0  0  0  0  0  0  0  0  0
   29.1924  -21.0713   35.3078 C   0  0  0  0  0  0  0  0  0  0  0  0
   28.6734  -22.1703   35.9214 C   0  0  0  0  0  0  0  0  0  0  0  0
   29.4483  -22.7840   36.8615 C   0  0  0  0  0  0  0  0  0  0  0  0
   30.7307  -22.3439   37.2173 C   0  0  0  0  0  0  0  0  0  0  0  0
   31.2305  -21.2383   36.5862 C   0  0  0  0  0  0  0  0  0  0  0  0
   33.4820  -22.8493   39.3400 H   0  0  0  0  0  0  0  0  0  0  0  0
   32.1779  -17.3523   33.9938 H   0  0  0  0  0  0  0  0  0  0  0  0
   35.4149  -21.0064   40.4510 C   0  0  0  0  0  0  0  0  0  0  0  0
   35.3482  -21.4388   39.1236 O   0  0  0  0  0  0  0  0  0  0  0  0
   36.3713  -19.2738   37.7048 O   0  0  0  0  0  0  0  0  0  0  0  0
   37.5153  -19.8992   37.1710 C   0  0  0  0  0  0  0  0  0  0  0  0
 21 22  1  0  0  0
 22  1  1  0  0  0
  1  2  2  0  0  0
  2  3  1  0  0  0
  2  4  1  0  0  0
  4  5  2  0  0  0
  5  6  1  0  0  0
  6  7  2  0  0  0
  7 23  1  0  0  0
 23 24  1  0  0  0
  6  8  1  0  0  0
  8  9  1  0  0  0
  9 10  1  0  0  0
 10 11  1  0  0  0
 11 12  1  0  0  0
 12 13  1  0  0  0
 13 14  2  0  0  0
 14 15  1  0  0  0
 15 16  2  0  0  0
 16 17  1  0  0  0
 17 18  2  0  0  0
  7  1  1  0  0  0
 18 13  1  0  0  0
 18  4  1  0  0  0
 11  5  1  0  0  0
  3 19  1  0  0  0
 10 20  1  0  0  0
M  END
> <minimizedAffinity>
-5.42944

> <CNNscore>
0.6469995975

> <CNNaffinity>
4.1832838058

> <CNN_VS>
2.7065830231

> <CNNaffinity_variance>
0.4302634597

$$$$
[H]Oc1c(OC([H])([H])[H])c(OC([H])([H])[H])c2c3c1-c1c([H])c([H])c([H])c([H])c1C([H])([H])[C@@]3([H])N([H])C([H])([H])C2([H])[H]


 24 27  0  0  0  0  0  0  0  0999 V2000
   36.1896  -21.0121   39.1083 C   0  0  0  0  0  0  0  0  0  0  0  0
   35.2338  -20.5166   38.2321 C   0  0  0  0  0  0  0  0  0  0  0  0
   33.9343  -20.6880   38.6277 O   0  0  0  0  0  0  0  0  0  0  0  0
   35.6621  -19.9112   37.0725 C   0  0  0  0  0  0  0  0  0  0  0  0
   36.9993  -19.7895   36.7669 C   0  0  0  0  0  0  0  0  0  0  0  0
   37.9253  -20.2982   37.6718 C   0  0  0  0  0  0  0  0  0  0  0  0
   37.5433  -20.9069   38.8363 C   0  0  0  0  0  0  0  0  0  0  0  0
   39.3533  -20.1654   37.3344 C   0  0  0  0  0  0  0  0  0  0  0  0
   39.6944  -18.9533   36.5570 C   0  0  0  0  0  0  0  0  0  0  0  0
   38.7220  -18.4583   35.6775 N   0  0  0  0  0  0  0  0  0  0  0  0
   37.5041  -19.2117   35.5437 C   0  0  0  0  0  0  0  0  0  0  0  0
   36.5459  -18.4003   34.7707 C   0  0  0  0  0  0  0  0  0  0  0  0
   35.1259  -18.6555   35.0278 C   0  0  0  0  0  0  0  0  0  0  0  0
   34.1789  -18.1530   34.1168 C   0  0  0  0  0  0  0  0  0  0  0  0
   32.8392  -18.2988   34.3111 C   0  0  0  0  0  0  0  0  0  0  0  0
   32.4404  -18.9588   35.4364 C   0  0  0  0  0  0  0  0  0  0  0  0
   33.3301  -19.4849   36.3835 C   0  0  0  0  0  0  0  0  0  0  0  0
   34.6708  -19.3265   36.1655 C   0  0  0  0  0  0  0  0  0  0  0  0
   33.6358  -21.1281   39.4717 H   0  0  0  0  0  0  0  0  0  0  0  0
   39.0891  -18.3060   34.6970 H   0  0  0  0  0  0  0  0  0  0  0  0
   35.6828  -21.0019   41.5253 C   0  0  0  0  0  0  0  0  0  0  0  0
   35.7860  -21.6238   40.2780 O   0  0  0  0  0  0  0  0  0  0  0  0
   38.5016  -21.4001   39.7100 O   0  0  0  0  0  0  0  0  0  0  0  0
   38.8917  -22.7520   39.6402 C   0  0  0  0  0  0  0  0  0  0  0  0
 21 22  1  0  0  0
 22  1  1  0  0  0
  1  2  2  0  0  0
  2  3  1  0  0  0
  2  4  1  0  0  0
  4  5  2  0  0  0
  5  6  1  0  0  0
  6  7  2  0  0  0
  7 23  1  0  0  0
 23 24  1  0  0  0
  6  8  1  0  0  0
  8  9  1  0  0  0
  9 10  1  0  0  0
 10 11  1  0  0  0
 11 12  1  0  0  0
 12 13  1  0  0  0
 13 14  2  0  0  0
 14 15  1  0  0  0
 15 16  2  0  0  0
 16 17  1  0  0  0
 17 18  2  0  0  0
  7  1  1  0  0  0
 18 13  1  0  0  0
 18  4  1  0  0  0
 11  5  1  0  0  0
  3 19  1  0  0  0
 10 20  1  0  0  0
M  END
> <minimizedAffinity>
-5.14469

> <CNNscore>
0.6023349762

> <CNNaffinity>
4.2091407776

> <CNN_VS>
2.5353126526

> <CNNaffinity_variance>
0.2501620948

$$$$
[H]Oc1c(OC([H])([H])[H])c(OC([H])([H])[H])c2c3c1-c1c([H])c([H])c([H])c([H])c1C([H])([H])[C@@]3([H])N([H])C([H])([H])C2([H])[H]


 24 27  0  0  0  0  0  0  0  0999 V2000
   35.1895  -15.4793   36.0458 C   0  0  0  0  0  0  0  0  0  0  0  0
   34.1906  -16.4027   35.7688 C   0  0  0  0  0  0  0  0  0  0  0  0
   33.0037  -15.8689   35.3437 O   0  0  0  0  0  0  0  0  0  0  0  0
   34.4712  -17.7394   35.9395 C   0  0  0  0  0  0  0  0  0  0  0  0
   35.7035  -18.1739   36.3742 C   0  0  0  0  0  0  0  0  0  0  0  0
   36.6774  -17.2168   36.6401 C   0  0  0  0  0  0  0  0  0  0  0  0
   36.4413  -15.8781   36.4833 C   0  0  0  0  0  0  0  0  0  0  0  0
   37.9915  -17.6917   37.1072 C   0  0  0  0  0  0  0  0  0  0  0  0
   38.4007  -19.0074   36.5675 C   0  0  0  0  0  0  0  0  0  0  0  0
   37.3853  -19.9319   36.2875 N   0  0  0  0  0  0  0  0  0  0  0  0
   36.0372  -19.5570   36.6203 C   0  0  0  0  0  0  0  0  0  0  0  0
   35.1253  -20.5547   36.0313 C   0  0  0  0  0  0  0  0  0  0  0  0
   33.7754  -20.0859   35.7061 C   0  0  0  0  0  0  0  0  0  0  0  0
   32.7789  -21.0433   35.4422 C   0  0  0  0  0  0  0  0  0  0  0  0
   31.5148  -20.6911   35.0793 C   0  0  0  0  0  0  0  0  0  0  0  0
   31.2432  -19.3580   34.9788 C   0  0  0  0  0  0  0  0  0  0  0  0
   32.1881  -18.3530   35.2285 C   0  0  0  0  0  0  0  0  0  0  0  0
   33.4507  -18.7320   35.5924 C   0  0  0  0  0  0  0  0  0  0  0  0
   32.8122  -14.8974   35.2229 H   0  0  0  0  0  0  0  0  0  0  0  0
   37.5516  -20.8774   36.7321 H   0  0  0  0  0  0  0  0  0  0  0  0
   34.2309  -13.3257   36.7820 C   0  0  0  0  0  0  0  0  0  0  0  0
   34.9333  -14.1329   35.8828 O   0  0  0  0  0  0  0  0  0  0  0  0
   37.4424  -14.9583   36.7604 O   0  0  0  0  0  0  0  0  0  0  0  0
   37.4211  -14.2341   37.9686 C   0  0  0  0  0  0  0  0  0  0  0  0
 21 22  1  0  0  0
 22  1  1  0  0  0
  1  2  2  0  0  0
  2  3  1  0  0  0
  2  4  1  0  0  0
  4  5  2  0  0  0
  5  6  1  0  0  0
  6  7  2  0  0  0
  7 23  1  0  0  0
 23 24  1  0  0  0
  6  8  1  0  0  0
  8  9  1  0  0  0
  9 10  1  0  0  0
 10 11  1  0  0  0
 11 12  1  0  0  0
 12 13  1  0  0  0
 13 14  2  0  0  0
 14 15  1  0  0  0
 15 16  2  0  0  0
 16 17  1  0  0  0
 17 18  2  0  0  0
  7  1  1  0  0  0
 18 13  1  0  0  0
 18  4  1  0  0  0
 11  5  1  0  0  0
  3 19  1  0  0  0
 10 20  1  0  0  0
M  END
> <minimizedAffinity>
-5.21006

> <CNNscore>
0.5915206671

> <CNNaffinity>
4.6340389252

> <CNN_VS>
2.7411298752

> <CNNaffinity_variance>
0.1316078603

$$$$
[H]Oc1c(OC([H])([H])[H])c(OC([H])([H])[H])c2c3c1-c1c([H])c([H])c([H])c([H])c1C([H])([H])[C@@]3([H])N([H])C([H])([H])C2([H])[H]


 24 27  0  0  0  0  0  0  0  0999 V2000
   37.0772  -18.8599   36.6507 C   0  0  0  0  0  0  0  0  0  0  0  0
   37.0415  -17.4759   36.7519 C   0  0  0  0  0  0  0  0  0  0  0  0
   38.1979  -16.8929   37.1958 O   0  0  0  0  0  0  0  0  0  0  0  0
   35.8786  -16.8255   36.4061 C   0  0  0  0  0  0  0  0  0  0  0  0
   34.7657  -17.5088   35.9694 C   0  0  0  0  0  0  0  0  0  0  0  0
   34.8428  -18.8950   35.8812 C   0  0  0  0  0  0  0  0  0  0  0  0
   35.9788  -19.5814   36.2142 C   0  0  0  0  0  0  0  0  0  0  0  0
   33.6459  -19.6169   35.4155 C   0  0  0  0  0  0  0  0  0  0  0  0
   32.8193  -18.8761   34.4368 C   0  0  0  0  0  0  0  0  0  0  0  0
   32.7920  -17.4791   34.5446 N   0  0  0  0  0  0  0  0  0  0  0  0
   33.5050  -16.8849   35.6433 C   0  0  0  0  0  0  0  0  0  0  0  0
   33.5439  -15.4266   35.4294 C   0  0  0  0  0  0  0  0  0  0  0  0
   34.6770  -14.7144   36.0267 C   0  0  0  0  0  0  0  0  0  0  0  0
   34.6092  -13.3129   36.1289 C   0  0  0  0  0  0  0  0  0  0  0  0
   35.6405  -12.5722   36.6203 C   0  0  0  0  0  0  0  0  0  0  0  0
   36.7588  -13.2456   37.0163 C   0  0  0  0  0  0  0  0  0  0  0  0
   36.8919  -14.6392   36.9428 C   0  0  0  0  0  0  0  0  0  0  0  0
   35.8419  -15.3612   36.4465 C   0  0  0  0  0  0  0  0  0  0  0  0
   39.0355  -17.3751   37.4428 H   0  0  0  0  0  0  0  0  0  0  0  0
   31.8106  -17.0850   34.5763 H   0  0  0  0  0  0  0  0  0  0  0  0
   39.2521  -19.8959   36.1075 C   0  0  0  0  0  0  0  0  0  0  0  0
   38.2314  -19.5358   36.9916 O   0  0  0  0  0  0  0  0  0  0  0  0
   36.0110  -20.9646   36.1108 O   0  0  0  0  0  0  0  0  0  0  0  0
   35.7870  -21.7631   37.2496 C   0  0  0  0  0  0  0  0  0  0  0  0
 21 22  1  0  0  0
 22  1  1  0  0  0
  1  2  2  0  0  0
  2  3  1  0  0  0
  2  4  1  0  0  0
  4  5  2  0  0  0
  5  6  1  0  0  0
  6  7  2  0  0  0
  7 23  1  0  0  0
 23 24  1  0  0  0
  6  8  1  0  0  0
  8  9  1  0  0  0
  9 10  1  0  0  0
 10 11  1  0  0  0
 11 12  1  0  0  0
 12 13  1  0  0  0
 13 14  2  0  0  0
 14 15  1  0  0  0
 15 16  2  0  0  0
 16 17  1  0  0  0
 17 18  2  0  0  0
  7  1  1  0  0  0
 18 13  1  0  0  0
 18  4  1  0  0  0
 11  5  1  0  0  0
  3 19  1  0  0  0
 10 20  1  0  0  0
M  END
> <minimizedAffinity>
-6.10953

> <CNNscore>
0.5295041203

> <CNNaffinity>
4.7912330627

> <CNN_VS>
2.5369775295

> <CNNaffinity_variance>
0.1749440879

$$$$
[H]Oc1c(OC([H])([H])[H])c(OC([H])([H])[H])c2c3c1-c1c([H])c([H])c([H])c([H])c1C([H])([H])[C@@]3([H])N([H])C([H])([H])C2([H])[H]


 24 27  0  0  0  0  0  0  0  0999 V2000
   39.9909  -20.3292   37.6912 C   0  0  0  0  0  0  0  0  0  0  0  0
   38.7103  -20.0076   37.2628 C   0  0  0  0  0  0  0  0  0  0  0  0
   37.7181  -20.2114   38.1838 O   0  0  0  0  0  0  0  0  0  0  0  0
   38.5517  -19.5238   35.9839 C   0  0  0  0  0  0  0  0  0  0  0  0
   39.6207  -19.3556   35.1324 C   0  0  0  0  0  0  0  0  0  0  0  0
   40.8877  -19.6888   35.6004 C   0  0  0  0  0  0  0  0  0  0  0  0
   41.0905  -20.1723   36.8643 C   0  0  0  0  0  0  0  0  0  0  0  0
   42.0244  -19.5077   34.6808 C   0  0  0  0  0  0  0  0  0  0  0  0
   41.8784  -18.3816   33.7320 C   0  0  0  0  0  0  0  0  0  0  0  0
   40.5815  -18.0619   33.3077 N   0  0  0  0  0  0  0  0  0  0  0  0
   39.5080  -18.9021   33.7662 C   0  0  0  0  0  0  0  0  0  0  0  0
   38.2333  -18.2551   33.4049 C   0  0  0  0  0  0  0  0  0  0  0  0
   37.0840  -18.5667   34.2592 C   0  0  0  0  0  0  0  0  0  0  0  0
   35.7962  -18.2419   33.7950 C   0  0  0  0  0  0  0  0  0  0  0  0
   34.6816  -18.4477   34.5493 C   0  0  0  0  0  0  0  0  0  0  0  0
   34.8587  -18.9880   35.7894 C   0  0  0  0  0  0  0  0  0  0  0  0
   36.1121  -19.3354   36.3123 C   0  0  0  0  0  0  0  0  0  0  0  0
   37.2165  -19.1199   35.5351 C   0  0  0  0  0  0  0  0  0  0  0  0
   37.8454  -20.5621   39.1089 H   0  0  0  0  0  0  0  0  0  0  0  0
   40.4913  -18.0086   32.2548 H   0  0  0  0  0  0  0  0  0  0  0  0
   40.2628  -22.1670   39.3183 C   0  0  0  0  0  0  0  0  0  0  0  0
   40.1767  -20.8165   38.9692 O   0  0  0  0  0  0  0  0  0  0  0  0
   42.3720  -20.4918   37.2893 O   0  0  0  0  0  0  0  0  0  0  0  0
   43.1188  -19.5632   38.0408 C   0  0  0  0  0  0  0  0  0  0  0  0
 21 22  1  0  0  0
 22  1  1  0  0  0
  1  2  2  0  0  0
  2  3  1  0  0  0
  2  4  1  0  0  0
  4  5  2  0  0  0
  5  6  1  0  0  0
  6  7  2  0  0  0
  7 23  1  0  0  0
 23 24  1  0  0  0
  6  8  1  0  0  0
  8  9  1  0  0  0
  9 10  1  0  0  0
 10 11  1  0  0  0
 11 12  1  0  0  0
 12 13  1  0  0  0
 13 14  2  0  0  0
 14 15  1  0  0  0
 15 16  2  0  0  0
 16 17  1  0  0  0
 17 18  2  0  0  0
  7  1  1  0  0  0
 18 13  1  0  0  0
 18  4  1  0  0  0
 11  5  1  0  0  0
  3 19  1  0  0  0
 10 20  1  0  0  0
M  END
> <minimizedAffinity>
-5.20278

> <CNNscore>
0.5247278810

> <CNNaffinity>
4.1459517479

> <CNN_VS>
2.1754965782

> <CNNaffinity_variance>
0.2647033334

$$$$
[H]Oc1c(OC([H])([H])[H])c(OC([H])([H])[H])c2c3c1-c1c([H])c([H])c([H])c([H])c1C([H])([H])[C@@]3([H])N([H])C([H])([H])C2([H])[H]


 24 27  0  0  0  0  0  0  0  0999 V2000
   39.8999  -23.1748   35.3243 C   0  0  0  0  0  0  0  0  0  0  0  0
   38.9051  -22.5409   36.0561 C   0  0  0  0  0  0  0  0  0  0  0  0
   38.3025  -23.3125   37.0131 O   0  0  0  0  0  0  0  0  0  0  0  0
   38.6178  -21.2264   35.7658 C   0  0  0  0  0  0  0  0  0  0  0  0
   39.2857  -20.5372   34.7783 C   0  0  0  0  0  0  0  0  0  0  0  0
   40.2762  -21.2082   34.0686 C   0  0  0  0  0  0  0  0  0  0  0  0
   40.5942  -22.5143   34.3248 C   0  0  0  0  0  0  0  0  0  0  0  0
   40.9830  -20.4629   33.0124 C   0  0  0  0  0  0  0  0  0  0  0  0
   41.1391  -19.0153   33.2765 C   0  0  0  0  0  0  0  0  0  0  0  0
   40.1317  -18.3845   34.0190 N   0  0  0  0  0  0  0  0  0  0  0  0
   38.9917  -19.1762   34.3961 C   0  0  0  0  0  0  0  0  0  0  0  0
   38.1893  -18.3961   35.3561 C   0  0  0  0  0  0  0  0  0  0  0  0
   37.3850  -19.1691   36.3066 C   0  0  0  0  0  0  0  0  0  0  0  0
   36.3748  -18.5045   37.0257 C   0  0  0  0  0  0  0  0  0  0  0  0
   35.6203  -19.1367   37.9662 C   0  0  0  0  0  0  0  0  0  0  0  0
   35.8812  -20.4567   38.1910 C   0  0  0  0  0  0  0  0  0  0  0  0
   36.8711  -21.1787   37.5099 C   0  0  0  0  0  0  0  0  0  0  0  0
   37.6151  -20.5217   36.5691 C   0  0  0  0  0  0  0  0  0  0  0  0
   38.5201  -24.2649   37.2152 H   0  0  0  0  0  0  0  0  0  0  0  0
   39.7513  -17.5169   33.5479 H   0  0  0  0  0  0  0  0  0  0  0  0
   41.1910  -24.9300   36.4867 C   0  0  0  0  0  0  0  0  0  0  0  0
   40.2068  -24.4929   35.5959 O   0  0  0  0  0  0  0  0  0  0  0  0
   41.5897  -23.1443   33.5919 O   0  0  0  0  0  0  0  0  0  0  0  0
   41.2470  -24.0333   32.5542 C   0  0  0  0  0  0  0  0  0  0  0  0
 21 22  1  0  0  0
 22  1  1  0  0  0
  1  2  2  0  0  0
  2  3  1  0  0  0
  2  4  1  0  0  0
  4  5  2  0  0  0
  5  6  1  0  0  0
  6  7  2  0  0  0
  7 23  1  0  0  0
 23 24  1  0  0  0
  6  8  1  0  0  0
  8  9  1  0  0  0
  9 10  1  0  0  0
 10 11  1  0  0  0
 11 12  1  0  0  0
 12 13  1  0  0  0
 13 14  2  0  0  0
 14 15  1  0  0  0
 15 16  2  0  0  0
 16 17  1  0  0  0
 17 18  2  0  0  0
  7  1  1  0  0  0
 18 13  1  0  0  0
 18  4  1  0  0  0
 11  5  1  0  0  0
  3 19  1  0  0  0
 10 20  1  0  0  0
M  END
> <minimizedAffinity>
-4.17116

> <CNNscore>
0.5040590167

> <CNNaffinity>
4.0337314606

> <CNN_VS>
2.0332386494

> <CNNaffinity_variance>
0.0461004935

$$$$
[H]Oc1c(OC([H])([H])[H])c(OC([H])([H])[H])c2c3c1-c1c([H])c([H])c([H])c([H])c1C([H])([H])[C@@]3([H])N([H])C([H])([H])C2([H])[H]


 24 27  0  0  0  0  0  0  0  0999 V2000
   34.1328  -21.8778   37.1784 C   0  0  0  0  0  0  0  0  0  0  0  0
   34.9230  -20.7367   37.1543 C   0  0  0  0  0  0  0  0  0  0  0  0
   36.1859  -20.8902   37.6601 O   0  0  0  0  0  0  0  0  0  0  0  0
   34.3844  -19.5802   36.6375 C   0  0  0  0  0  0  0  0  0  0  0  0
   33.0968  -19.5315   36.1520 C   0  0  0  0  0  0  0  0  0  0  0  0
   32.3382  -20.6968   36.1933 C   0  0  0  0  0  0  0  0  0  0  0  0
   32.8342  -21.8681   36.6979 C   0  0  0  0  0  0  0  0  0  0  0  0
   30.9610  -20.6336   35.6739 C   0  0  0  0  0  0  0  0  0  0  0  0
   30.7652  -19.6841   34.5559 C   0  0  0  0  0  0  0  0  0  0  0  0
   31.5697  -18.5367   34.5381 N   0  0  0  0  0  0  0  0  0  0  0  0
   32.4632  -18.3362   35.6471 C   0  0  0  0  0  0  0  0  0  0  0  0
   33.3668  -17.2204   35.3117 C   0  0  0  0  0  0  0  0  0  0  0  0
   34.6831  -17.2369   35.9559 C   0  0  0  0  0  0  0  0  0  0  0  0
   35.4577  -16.0629   35.9280 C   0  0  0  0  0  0  0  0  0  0  0  0
   36.7122  -16.0107   36.4545 C   0  0  0  0  0  0  0  0  0  0  0  0
   37.1999  -17.1531   37.0186 C   0  0  0  0  0  0  0  0  0  0  0  0
   36.4815  -18.3552   37.0808 C   0  0  0  0  0  0  0  0  0  0  0  0
   35.2232  -18.3821   36.5459 C   0  0  0  0  0  0  0  0  0  0  0  0
   36.5657  -21.7345   38.0316 H   0  0  0  0  0  0  0  0  0  0  0  0
   31.0136  -17.6423   34.4360 H   0  0  0  0  0  0  0  0  0  0  0  0
   35.2428  -24.0715   36.9445 C   0  0  0  0  0  0  0  0  0  0  0  0
   34.6494  -23.0504   37.6917 O   0  0  0  0  0  0  0  0  0  0  0  0
   32.0418  -23.0068   36.7194 O   0  0  0  0  0  0  0  0  0  0  0  0
   31.3430  -23.3587   37.8910 C   0  0  0  0  0  0  0  0  0  0  0  0
 21 22  1  0  0  0
 22  1  1  0  0  0
  1  2  2  0  0  0
  2  3  1  0  0  0
  2  4  1  0  0  0
  4  5  2  0  0  0
  5  6  1  0  0  0
  6  7  2  0  0  0
  7 23  1  0  0  0
 23 24  1  0  0  0
  6  8  1  0  0  0
  8  9  1  0  0  0
  9 10  1  0  0  0
 10 11  1  0  0  0
 11 12  1  0  0  0
 12 13  1  0  0  0
 13 14  2  0  0  0
 14 15  1  0  0  0
 15 16  2  0  0  0
 16 17  1  0  0  0
 17 18  2  0  0  0
  7  1  1  0  0  0
 18 13  1  0  0  0
 18  4  1  0  0  0
 11  5  1  0  0  0
  3 19  1  0  0  0
 10 20  1  0  0  0
M  END
> <minimizedAffinity>
-5.54510

> <CNNscore>
0.4924255610

> <CNNaffinity>
4.0351972580

> <CNN_VS>
1.9870343208

> <CNNaffinity_variance>
0.3411235213

$$$$
[H]Oc1c(OC([H])([H])[H])c(OC([H])([H])[H])c2c3c1-c1c([H])c([H])c([H])c([H])c1C([H])([H])[C@@]3([H])N([H])C([H])([H])C2([H])[H]


 24 27  0  0  0  0  0  0  0  0999 V2000
   38.0732  -21.1754   38.4413 C   0  0  0  0  0  0  0  0  0  0  0  0
   39.2726  -20.9083   39.0871 C   0  0  0  0  0  0  0  0  0  0  0  0
   39.4252  -21.5097   40.3075 O   0  0  0  0  0  0  0  0  0  0  0  0
   40.1816  -20.0849   38.4622 C   0  0  0  0  0  0  0  0  0  0  0  0
   39.9296  -19.5276   37.2285 C   0  0  0  0  0  0  0  0  0  0  0  0
   38.7163  -19.8208   36.6144 C   0  0  0  0  0  0  0  0  0  0  0  0
   37.7847  -20.6346   37.1996 C   0  0  0  0  0  0  0  0  0  0  0  0
   38.4552  -19.2175   35.2960 C   0  0  0  0  0  0  0  0  0  0  0  0
   39.6587  -19.0183   34.4583 C   0  0  0  0  0  0  0  0  0  0  0  0
   40.8657  -18.7527   35.1191 N   0  0  0  0  0  0  0  0  0  0  0  0
   40.8221  -18.6174   36.5503 C   0  0  0  0  0  0  0  0  0  0  0  0
   42.2089  -18.5825   37.0498 C   0  0  0  0  0  0  0  0  0  0  0  0
   42.4159  -19.0598   38.4199 C   0  0  0  0  0  0  0  0  0  0  0  0
   43.6356  -18.7640   39.0556 C   0  0  0  0  0  0  0  0  0  0  0  0
   43.9287  -19.2165   40.3058 C   0  0  0  0  0  0  0  0  0  0  0  0
   42.9849  -19.9780   40.9306 C   0  0  0  0  0  0  0  0  0  0  0  0
   41.7500  -20.3088   40.3556 C   0  0  0  0  0  0  0  0  0  0  0  0
   41.4786  -19.8417   39.0993 C   0  0  0  0  0  0  0  0  0  0  0  0
   38.7590  -22.1057   40.7503 H   0  0  0  0  0  0  0  0  0  0  0  0
   41.3584  -17.8914   34.7517 H   0  0  0  0  0  0  0  0  0  0  0  0
   37.0008  -23.3685   38.8143 C   0  0  0  0  0  0  0  0  0  0  0  0
   37.1448  -21.9979   39.0468 O   0  0  0  0  0  0  0  0  0  0  0  0
   36.5875  -20.9000   36.5506 O   0  0  0  0  0  0  0  0  0  0  0  0
   35.4309  -20.1634   36.8738 C   0  0  0  0  0  0  0  0  0  0  0  0
 21 22  1  0  0  0
 22  1  1  0  0  0
  1  2  2  0  0  0
  2  3  1  0  0  0
  2  4  1  0  0  0
  4  5  2  0  0  0
  5  6  1  0  0  0
  6  7  2  0  0  0
  7 23  1  0  0  0
 23 24  1  0  0  0
  6  8  1  0  0  0
  8  9  1  0  0  0
  9 10  1  0  0  0
 10 11  1  0  0  0
 11 12  1  0  0  0
 12 13  1  0  0  0
 13 14  2  0  0  0
 14 15  1  0  0  0
 15 16  2  0  0  0
 16 17  1  0  0  0
 17 18  2  0  0  0
  7  1  1  0  0  0
 18 13  1  0  0  0
 18  4  1  0  0  0
 11  5  1  0  0  0
  3 19  1  0  0  0
 10 20  1  0  0  0
M  END
> <minimizedAffinity>
-4.40399

> <CNNscore>
0.4862868786

> <CNNaffinity>
4.1662387848

> <CNN_VS>
2.0259871483

> <CNNaffinity_variance>
0.0695524067

$$$$
[H]Oc1c(OC([H])([H])[H])c(OC([H])([H])[H])c2c3c1-c1c([H])c([H])c([H])c([H])c1C([H])([H])[C@@]3([H])N([H])C([H])([H])C2([H])[H]


 24 27  0  0  0  0  0  0  0  0999 V2000
   35.5126  -17.7831   35.7879 C   0  0  0  0  0  0  0  0  0  0  0  0
   34.1754  -18.0819   35.5651 C   0  0  0  0  0  0  0  0  0  0  0  0
   33.4576  -17.1063   34.9268 O   0  0  0  0  0  0  0  0  0  0  0  0
   33.6985  -19.3003   35.9925 C   0  0  0  0  0  0  0  0  0  0  0  0
   34.5076  -20.2154   36.6282 C   0  0  0  0  0  0  0  0  0  0  0  0
   35.8418  -19.8780   36.8315 C   0  0  0  0  0  0  0  0  0  0  0  0
   36.3574  -18.6782   36.4223 C   0  0  0  0  0  0  0  0  0  0  0  0
   36.6984  -20.8627   37.5149 C   0  0  0  0  0  0  0  0  0  0  0  0
   36.3424  -22.2757   37.2572 C   0  0  0  0  0  0  0  0  0  0  0  0
   34.9906  -22.5674   37.0300 N   0  0  0  0  0  0  0  0  0  0  0  0
   34.0507  -21.4846   37.1432 C   0  0  0  0  0  0  0  0  0  0  0  0
   32.7477  -21.9540   36.6374 C   0  0  0  0  0  0  0  0  0  0  0  0
   31.8573  -20.9267   36.0900 C   0  0  0  0  0  0  0  0  0  0  0  0
   30.5038  -21.2522   35.8863 C   0  0  0  0  0  0  0  0  0  0  0  0
   29.6237  -20.3740   35.3315 C   0  0  0  0  0  0  0  0  0  0  0  0
   30.1063  -19.1490   34.9745 C   0  0  0  0  0  0  0  0  0  0  0  0
   31.4415  -18.7600   35.1505 C   0  0  0  0  0  0  0  0  0  0  0  0
   32.3060  -19.6594   35.7107 C   0  0  0  0  0  0  0  0  0  0  0  0
   33.8148  -16.2267   34.6208 H   0  0  0  0  0  0  0  0  0  0  0  0
   34.6256  -23.3464   37.6459 H   0  0  0  0  0  0  0  0  0  0  0  0
   36.1582  -15.4299   36.1679 C   0  0  0  0  0  0  0  0  0  0  0  0
   36.0154  -16.5677   35.3691 O   0  0  0  0  0  0  0  0  0  0  0  0
   37.6946  -18.3836   36.6459 O   0  0  0  0  0  0  0  0  0  0  0  0
   38.6682  -18.7595   35.6997 C   0  0  0  0  0  0  0  0  0  0  0  0
 21 22  1  0  0  0
 22  1  1  0  0  0
  1  2  2  0  0  0
  2  3  1  0  0  0
  2  4  1  0  0  0
  4  5  2  0  0  0
  5  6  1  0  0  0
  6  7  2  0  0  0
  7 23  1  0  0  0
 23 24  1  0  0  0
  6  8  1  0  0  0
  8  9  1  0  0  0
  9 10  1  0  0  0
 10 11  1  0  0  0
 11 12  1  0  0  0
 12 13  1  0  0  0
 13 14  2  0  0  0
 14 15  1  0  0  0
 15 16  2  0  0  0
 16 17  1  0  0  0
 17 18  2  0  0  0
  7  1  1  0  0  0
 18 13  1  0  0  0
 18  4  1  0  0  0
 11  5  1  0  0  0
  3 19  1  0  0  0
 10 20  1  0  0  0
M  END
> <minimizedAffinity>
-5.73331

> <CNNscore>
0.4624037147

> <CNNaffinity>
4.0692300797

> <CNN_VS>
1.8816270828

> <CNNaffinity_variance>
0.3732869327

$$$$
[H]c1c([H])c([H])c(N([H])[C@@]2([H])c3c([H])c(-c4c([H])c([H])c(C(F)(F)F)c([H])c4[H])c([H])c([H])c3N(C(=O)C([H])([H])[H])[C@@]([H])(C([H])([H])[H])C2([H])[H])c([H])c1[H]


 32 35  0  0  0  0  0  0  0  0999 V2000
   41.0648  -25.5256   32.5013 C   0  0  0  0  0  0  0  0  0  0  0  0
   41.5307  -24.1329   32.4889 C   0  0  0  0  0  0  0  0  0  0  0  0
   42.2848  -23.7811   31.5185 O   0  0  0  0  0  0  0  0  0  0  0  0
   41.1977  -23.1894   33.4817 N   0  0  0  0  0  0  0  0  0  0  0  0
   40.2064  -23.3163   34.4787 C   0  0  0  0  0  0  0  0  0  0  0  0
   39.0693  -24.0712   34.2136 C   0  0  0  0  0  0  0  0  0  0  0  0
   38.1596  -24.2360   35.2305 C   0  0  0  0  0  0  0  0  0  0  0  0
   38.2958  -23.7022   36.4977 C   0  0  0  0  0  0  0  0  0  0  0  0
   39.4258  -22.9547   36.7264 C   0  0  0  0  0  0  0  0  0  0  0  0
   40.3802  -22.7599   35.7224 C   0  0  0  0  0  0  0  0  0  0  0  0
   41.5099  -21.8876   36.0679 C   0  0  0  0  0  0  0  0  0  0  0  0
   42.5322  -21.7839   34.9701 C   0  0  0  0  0  0  0  0  0  0  0  0
   41.9917  -21.9487   33.5897 C   0  0  0  0  0  0  0  0  0  0  0  0
   41.2636  -20.8034   32.9927 C   0  0  0  0  0  0  0  0  0  0  0  0
   37.3161  -23.9344   37.5643 C   0  0  0  0  0  0  0  0  0  0  0  0
   35.9568  -23.8771   37.2870 C   0  0  0  0  0  0  0  0  0  0  0  0
   34.9872  -24.1367   38.2298 C   0  0  0  0  0  0  0  0  0  0  0  0
   35.3895  -24.4664   39.5165 C   0  0  0  0  0  0  0  0  0  0  0  0
   36.7299  -24.5299   39.8292 C   0  0  0  0  0  0  0  0  0  0  0  0
   37.6814  -24.2607   38.8431 C   0  0  0  0  0  0  0  0  0  0  0  0
   34.3120  -24.7583   40.5287 C   0  0  0  0  0  0  0  0  0  0  0  0
   33.5984  -25.8834   40.1503 F   0  0  0  0  0  0  0  0  0  0  0  0
   33.4342  -23.7258   40.6662 F   0  0  0  0  0  0  0  0  0  0  0  0
   34.9570  -25.1043   41.7130 F   0  0  0  0  0  0  0  0  0  0  0  0
   40.9612  -20.5449   36.3481 N   0  0  0  0  0  0  0  0  0  0  0  0
   39.9271  -20.4379   36.2558 H   0  0  0  0  0  0  0  0  0  0  0  0
   41.8167  -19.4682   36.7159 C   0  0  0  0  0  0  0  0  0  0  0  0
   41.9382  -18.3627   35.8892 C   0  0  0  0  0  0  0  0  0  0  0  0
   42.7269  -17.3188   36.3077 C   0  0  0  0  0  0  0  0  0  0  0  0
   43.4078  -17.3024   37.4989 C   0  0  0  0  0  0  0  0  0  0  0  0
   43.2974  -18.4040   38.3375 C   0  0  0  0  0  0  0  0  0  0  0  0
   42.5087  -19.4577   37.9311 C   0  0  0  0  0  0  0  0  0  0  0  0
  1  2  1  0  0  0
  2  3  2  0  0  0
  2  4  1  0  0  0
  4  5  1  0  0  0
  5  6  2  0  0  0
  6  7  1  0  0  0
  7  8  2  0  0  0
  8 15  1  0  0  0
 15 16  2  0  0  0
 16 17  1  0  0  0
 17 18  2  0  0  0
 18 21  1  0  0  0
 21 22  1  0  0  0
 21 23  1  0  0  0
 21 24  1  0  0  0
 18 19  1  0  0  0
 19 20  2  0  0  0
  8  9  1  0  0  0
  9 10  2  0  0  0
 10 11  1  0  0  0
 11 25  1  0  0  0
 25 27  1  0  0  0
 27 28  2  0  0  0
 28 29  1  0  0  0
 29 30  2  0  0  0
 30 31  1  0  0  0
 31 32  2  0  0  0
 11 12  1  0  0  0
 12 13  1  0  0  0
 13 14  1  0  0  0
 13  4  1  0  0  0
 10  5  1  0  0  0
 32 27  1  0  0  0
 20 15  1  0  0  0
 25 26  1  0  0  0
M  END
> <minimizedAffinity>
-3.56757

> <CNNscore>
0.5279101729

> <CNNaffinity>
5.1602034569

> <CNN_VS>
2.7241239548

> <CNNaffinity_variance>
0.4318374693

$$$$
[H]c1c([H])c([H])c(N([H])[C@@]2([H])c3c([H])c(-c4c([H])c([H])c(C(F)(F)F)c([H])c4[H])c([H])c([H])c3N(C(=O)C([H])([H])[H])[C@@]([H])(C([H])([H])[H])C2([H])[H])c([H])c1[H]


 32 35  0  0  0  0  0  0  0  0999 V2000
   39.0095  -25.0017   40.2520 C   0  0  0  0  0  0  0  0  0  0  0  0
   39.3796  -24.1328   39.1274 C   0  0  0  0  0  0  0  0  0  0  0  0
   40.6107  -24.1202   38.7835 O   0  0  0  0  0  0  0  0  0  0  0  0
   38.4598  -23.3234   38.4306 N   0  0  0  0  0  0  0  0  0  0  0  0
   37.0511  -23.3797   38.5023 C   0  0  0  0  0  0  0  0  0  0  0  0
   36.4324  -24.5977   38.7606 C   0  0  0  0  0  0  0  0  0  0  0  0
   35.0649  -24.6041   38.8979 C   0  0  0  0  0  0  0  0  0  0  0  0
   34.2620  -23.4841   38.7954 C   0  0  0  0  0  0  0  0  0  0  0  0
   34.9019  -22.2971   38.5319 C   0  0  0  0  0  0  0  0  0  0  0  0
   36.2918  -22.2411   38.3849 C   0  0  0  0  0  0  0  0  0  0  0  0
   36.8508  -20.9279   38.0390 C   0  0  0  0  0  0  0  0  0  0  0  0
   38.3528  -20.9256   37.9711 C   0  0  0  0  0  0  0  0  0  0  0  0
   38.9668  -22.2276   37.5799 C   0  0  0  0  0  0  0  0  0  0  0  0
   38.9224  -22.6086   36.1478 C   0  0  0  0  0  0  0  0  0  0  0  0
   32.8084  -23.5319   38.9854 C   0  0  0  0  0  0  0  0  0  0  0  0
   32.2713  -23.5053   40.2655 C   0  0  0  0  0  0  0  0  0  0  0  0
   30.9163  -23.4943   40.5105 C   0  0  0  0  0  0  0  0  0  0  0  0
   30.0496  -23.5150   39.4266 C   0  0  0  0  0  0  0  0  0  0  0  0
   30.5465  -23.5446   38.1418 C   0  0  0  0  0  0  0  0  0  0  0  0
   31.9278  -23.5535   37.9368 C   0  0  0  0  0  0  0  0  0  0  0  0
   28.5713  -23.4902   39.7177 C   0  0  0  0  0  0  0  0  0  0  0  0
   27.9984  -22.3564   39.1659 F   0  0  0  0  0  0  0  0  0  0  0  0
   28.3042  -23.4932   41.0535 F   0  0  0  0  0  0  0  0  0  0  0  0
   28.0095  -24.5648   39.0336 F   0  0  0  0  0  0  0  0  0  0  0  0
   36.3050  -20.5496   36.7194 N   0  0  0  0  0  0  0  0  0  0  0  0
   35.9513  -21.3296   36.1228 H   0  0  0  0  0  0  0  0  0  0  0  0
   36.2793  -19.1888   36.3023 C   0  0  0  0  0  0  0  0  0  0  0  0
   35.9116  -18.1945   37.1948 C   0  0  0  0  0  0  0  0  0  0  0  0
   35.9572  -16.8885   36.7715 C   0  0  0  0  0  0  0  0  0  0  0  0
   36.3441  -16.5042   35.5123 C   0  0  0  0  0  0  0  0  0  0  0  0
   36.7139  -17.4893   34.6059 C   0  0  0  0  0  0  0  0  0  0  0  0
   36.6742  -18.8034   35.0173 C   0  0  0  0  0  0  0  0  0  0  0  0
  1  2  1  0  0  0
  2  3  2  0  0  0
  2  4  1  0  0  0
  4  5  1  0  0  0
  5  6  2  0  0  0
  6  7  1  0  0  0
  7  8  2  0  0  0
  8 15  1  0  0  0
 15 16  2  0  0  0
 16 17  1  0  0  0
 17 18  2  0  0  0
 18 21  1  0  0  0
 21 22  1  0  0  0
 21 23  1  0  0  0
 21 24  1  0  0  0
 18 19  1  0  0  0
 19 20  2  0  0  0
  8  9  1  0  0  0
  9 10  2  0  0  0
 10 11  1  0  0  0
 11 25  1  0  0  0
 25 27  1  0  0  0
 27 28  2  0  0  0
 28 29  1  0  0  0
 29 30  2  0  0  0
 30 31  1  0  0  0
 31 32  2  0  0  0
 11 12  1  0  0  0
 12 13  1  0  0  0
 13 14  1  0  0  0
 13  4  1  0  0  0
 10  5  1  0  0  0
 32 27  1  0  0  0
 20 15  1  0  0  0
 25 26  1  0  0  0
M  END
> <minimizedAffinity>
-3.41815

> <CNNscore>
0.5153427720

> <CNNaffinity>
5.0191087723

> <CNN_VS>
2.5865614414

> <CNNaffinity_variance>
0.1261989772

$$$$
[H]c1c([H])c([H])c(N([H])[C@@]2([H])c3c([H])c(-c4c([H])c([H])c(C(F)(F)F)c([H])c4[H])c([H])c([H])c3N(C(=O)C([H])([H])[H])[C@@]([H])(C([H])([H])[H])C2([H])[H])c([H])c1[H]


 32 35  0  0  0  0  0  0  0  0999 V2000
   38.0543  -13.1298   37.2023 C   0  0  0  0  0  0  0  0  0  0  0  0
   37.8129  -14.5701   37.0471 C   0  0  0  0  0  0  0  0  0  0  0  0
   38.8404  -15.3281   36.9848 O   0  0  0  0  0  0  0  0  0  0  0  0
   36.5274  -15.1411   36.9575 N   0  0  0  0  0  0  0  0  0  0  0  0
   35.2952  -14.5132   37.2406 C   0  0  0  0  0  0  0  0  0  0  0  0
   35.2482  -13.5139   38.2061 C   0  0  0  0  0  0  0  0  0  0  0  0
   34.0493  -12.8719   38.4045 C   0  0  0  0  0  0  0  0  0  0  0  0
   32.8868  -13.1518   37.7121 C   0  0  0  0  0  0  0  0  0  0  0  0
   32.9631  -14.1495   36.7703 C   0  0  0  0  0  0  0  0  0  0  0  0
   34.1616  -14.8304   36.5327 C   0  0  0  0  0  0  0  0  0  0  0  0
   34.0997  -15.9202   35.5503 C   0  0  0  0  0  0  0  0  0  0  0  0
   35.4370  -16.5566   35.2904 C   0  0  0  0  0  0  0  0  0  0  0  0
   36.3864  -16.5174   36.4402 C   0  0  0  0  0  0  0  0  0  0  0  0
   36.1672  -17.4771   37.5489 C   0  0  0  0  0  0  0  0  0  0  0  0
   31.6374  -12.4155   37.9317 C   0  0  0  0  0  0  0  0  0  0  0  0
   30.7708  -12.7997   38.9463 C   0  0  0  0  0  0  0  0  0  0  0  0
   29.6094  -12.1200   39.2384 C   0  0  0  0  0  0  0  0  0  0  0  0
   29.2904  -11.0023   38.4799 C   0  0  0  0  0  0  0  0  0  0  0  0
   30.1251  -10.5931   37.4628 C   0  0  0  0  0  0  0  0  0  0  0  0
   31.2944  -11.3099   37.2000 C   0  0  0  0  0  0  0  0  0  0  0  0
   28.0212  -10.2669   38.8248 C   0  0  0  0  0  0  0  0  0  0  0  0
   27.6229  -10.5868   40.1122 F   0  0  0  0  0  0  0  0  0  0  0  0
   26.9985  -10.5686   37.9772 F   0  0  0  0  0  0  0  0  0  0  0  0
   28.3387   -8.9117   38.8566 F   0  0  0  0  0  0  0  0  0  0  0  0
   33.1718  -16.9402   36.0803 N   0  0  0  0  0  0  0  0  0  0  0  0
   32.6665  -16.6951   36.9601 H   0  0  0  0  0  0  0  0  0  0  0  0
   32.9974  -18.1859   35.4139 C   0  0  0  0  0  0  0  0  0  0  0  0
   33.0925  -19.3731   36.1225 C   0  0  0  0  0  0  0  0  0  0  0  0
   32.8587  -20.5511   35.4558 C   0  0  0  0  0  0  0  0  0  0  0  0
   32.5372  -20.6271   34.1240 C   0  0  0  0  0  0  0  0  0  0  0  0
   32.4399  -19.4459   33.3999 C   0  0  0  0  0  0  0  0  0  0  0  0
   32.6705  -18.2569   34.0562 C   0  0  0  0  0  0  0  0  0  0  0  0
  1  2  1  0  0  0
  2  3  2  0  0  0
  2  4  1  0  0  0
  4  5  1  0  0  0
  5  6  2  0  0  0
  6  7  1  0  0  0
  7  8  2  0  0  0
  8 15  1  0  0  0
 15 16  2  0  0  0
 16 17  1  0  0  0
 17 18  2  0  0  0
 18 21  1  0  0  0
 21 22  1  0  0  0
 21 23  1  0  0  0
 21 24  1  0  0  0
 18 19  1  0  0  0
 19 20  2  0  0  0
  8  9  1  0  0  0
  9 10  2  0  0  0
 10 11  1  0  0  0
 11 25  1  0  0  0
 25 27  1  0  0  0
 27 28  2  0  0  0
 28 29  1  0  0  0
 29 30  2  0  0  0
 30 31  1  0  0  0
 31 32  2  0  0  0
 11 12  1  0  0  0
 12 13  1  0  0  0
 13 14  1  0  0  0
 13  4  1  0  0  0
 10  5  1  0  0  0
 32 27  1  0  0  0
 20 15  1  0  0  0
 25 26  1  0  0  0
M  END
> <minimizedAffinity>
-4.89546

> <CNNscore>
0.5091356635

> <CNNaffinity>
5.9248504639

> <CNN_VS>
3.0165526867

> <CNNaffinity_variance>
0.2270130664

$$$$
[H]c1c([H])c([H])c(N([H])[C@@]2([H])c3c([H])c(-c4c([H])c([H])c(C(F)(F)F)c([H])c4[H])c([H])c([H])c3N(C(=O)C([H])([H])[H])[C@@]([H])(C([H])([H])[H])C2([H])[H])c([H])c1[H]


 32 35  0  0  0  0  0  0  0  0999 V2000
   41.9381  -19.3175   40.0885 C   0  0  0  0  0  0  0  0  0  0  0  0
   42.5889  -20.4527   39.4217 C   0  0  0  0  0  0  0  0  0  0  0  0
   43.8011  -20.6990   39.7443 O   0  0  0  0  0  0  0  0  0  0  0  0
   41.9535  -21.2602   38.4569 N   0  0  0  0  0  0  0  0  0  0  0  0
   40.5759  -21.2967   38.1507 C   0  0  0  0  0  0  0  0  0  0  0  0
   39.6502  -21.0256   39.1521 C   0  0  0  0  0  0  0  0  0  0  0  0
   38.3211  -20.9961   38.8035 C   0  0  0  0  0  0  0  0  0  0  0  0
   37.8408  -21.2188   37.5272 C   0  0  0  0  0  0  0  0  0  0  0  0
   38.7793  -21.4918   36.5614 C   0  0  0  0  0  0  0  0  0  0  0  0
   40.1434  -21.5317   36.8684 C   0  0  0  0  0  0  0  0  0  0  0  0
   41.0414  -21.8996   35.7662 C   0  0  0  0  0  0  0  0  0  0  0  0
   42.4949  -21.8492   36.1479 C   0  0  0  0  0  0  0  0  0  0  0  0
   42.7773  -22.1236   37.5866 C   0  0  0  0  0  0  0  0  0  0  0  0
   42.7267  -23.5334   38.0429 C   0  0  0  0  0  0  0  0  0  0  0  0
   36.4147  -21.1414   37.1931 C   0  0  0  0  0  0  0  0  0  0  0  0
   35.6249  -22.2825   37.2393 C   0  0  0  0  0  0  0  0  0  0  0  0
   34.2709  -22.2683   36.9888 C   0  0  0  0  0  0  0  0  0  0  0  0
   33.6711  -21.0575   36.6719 C   0  0  0  0  0  0  0  0  0  0  0  0
   34.4238  -19.9049   36.6137 C   0  0  0  0  0  0  0  0  0  0  0  0
   35.7943  -19.9625   36.8760 C   0  0  0  0  0  0  0  0  0  0  0  0
   32.1865  -21.0634   36.4136 C   0  0  0  0  0  0  0  0  0  0  0  0
   31.8780  -22.0014   35.4425 F   0  0  0  0  0  0  0  0  0  0  0  0
   31.7268  -19.8517   35.9942 F   0  0  0  0  0  0  0  0  0  0  0  0
   31.5780  -21.5180   37.5804 F   0  0  0  0  0  0  0  0  0  0  0  0
   40.6951  -23.2757   35.3552 N   0  0  0  0  0  0  0  0  0  0  0  0
   39.8587  -23.7000   35.8134 H   0  0  0  0  0  0  0  0  0  0  0  0
   41.4785  -23.9687   34.3897 C   0  0  0  0  0  0  0  0  0  0  0  0
   42.0448  -25.1940   34.7032 C   0  0  0  0  0  0  0  0  0  0  0  0
   42.7435  -25.8591   33.7252 C   0  0  0  0  0  0  0  0  0  0  0  0
   42.9190  -25.3827   32.4504 C   0  0  0  0  0  0  0  0  0  0  0  0
   42.3589  -24.1551   32.1214 C   0  0  0  0  0  0  0  0  0  0  0  0
   41.6542  -23.4777   33.0922 C   0  0  0  0  0  0  0  0  0  0  0  0
  1  2  1  0  0  0
  2  3  2  0  0  0
  2  4  1  0  0  0
  4  5  1  0  0  0
  5  6  2  0  0  0
  6  7  1  0  0  0
  7  8  2  0  0  0
  8 15  1  0  0  0
 15 16  2  0  0  0
 16 17  1  0  0  0
 17 18  2  0  0  0
 18 21  1  0  0  0
 21 22  1  0  0  0
 21 23  1  0  0  0
 21 24  1  0  0  0
 18 19  1  0  0  0
 19 20  2  0  0  0
  8  9  1  0  0  0
  9 10  2  0  0  0
 10 11  1  0  0  0
 11 25  1  0  0  0
 25 27  1  0  0  0
 27 28  2  0  0  0
 28 29  1  0  0  0
 29 30  2  0  0  0
 30 31  1  0  0  0
 31 32  2  0  0  0
 11 12  1  0  0  0
 12 13  1  0  0  0
 13 14  1  0  0  0
 13  4  1  0  0  0
 10  5  1  0  0  0
 32 27  1  0  0  0
 20 15  1  0  0  0
 25 26  1  0  0  0
M  END
> <minimizedAffinity>
-3.68620

> <CNNscore>
0.4943059981

> <CNNaffinity>
5.1766338348

> <CNN_VS>
2.5588412285

> <CNNaffinity_variance>
0.7037077546

$$$$
[H]c1c([H])c([H])c(N([H])[C@@]2([H])c3c([H])c(-c4c([H])c([H])c(C(F)(F)F)c([H])c4[H])c([H])c([H])c3N(C(=O)C([H])([H])[H])[C@@]([H])(C([H])([H])[H])C2([H])[H])c([H])c1[H]


 32 35  0  0  0  0  0  0  0  0999 V2000
   29.2729  -19.0242   35.4447 C   0  0  0  0  0  0  0  0  0  0  0  0
   29.9037  -20.3434   35.3087 C   0  0  0  0  0  0  0  0  0  0  0  0
   29.1529  -21.3117   34.9444 O   0  0  0  0  0  0  0  0  0  0  0  0
   31.2684  -20.5863   35.5643 N   0  0  0  0  0  0  0  0  0  0  0  0
   32.2865  -19.6240   35.7386 C   0  0  0  0  0  0  0  0  0  0  0  0
   32.1902  -18.4057   35.0756 C   0  0  0  0  0  0  0  0  0  0  0  0
   33.1589  -17.4633   35.3252 C   0  0  0  0  0  0  0  0  0  0  0  0
   34.2230  -17.6432   36.1882 C   0  0  0  0  0  0  0  0  0  0  0  0
   34.2951  -18.8601   36.8221 C   0  0  0  0  0  0  0  0  0  0  0  0
   33.3319  -19.8500   36.6003 C   0  0  0  0  0  0  0  0  0  0  0  0
   33.5548  -21.1305   37.2838 C   0  0  0  0  0  0  0  0  0  0  0  0
   32.4443  -22.1193   37.0606 C   0  0  0  0  0  0  0  0  0  0  0  0
   31.7269  -21.9765   35.7606 C   0  0  0  0  0  0  0  0  0  0  0  0
   32.3995  -22.4867   34.5418 C   0  0  0  0  0  0  0  0  0  0  0  0
   35.2145  -16.5951   36.4520 C   0  0  0  0  0  0  0  0  0  0  0  0
   35.0490  -15.3268   35.9115 C   0  0  0  0  0  0  0  0  0  0  0  0
   35.9141  -14.2854   36.1631 C   0  0  0  0  0  0  0  0  0  0  0  0
   37.0030  -14.5176   36.9918 C   0  0  0  0  0  0  0  0  0  0  0  0
   37.2011  -15.7644   37.5437 C   0  0  0  0  0  0  0  0  0  0  0  0
   36.2991  -16.7933   37.2642 C   0  0  0  0  0  0  0  0  0  0  0  0
   37.9297  -13.3606   37.2631 C   0  0  0  0  0  0  0  0  0  0  0  0
   37.3791  -12.1875   36.7742 F   0  0  0  0  0  0  0  0  0  0  0  0
   39.1525  -13.5276   36.6867 F   0  0  0  0  0  0  0  0  0  0  0  0
   37.9808  -13.2030   38.6454 F   0  0  0  0  0  0  0  0  0  0  0  0
   34.8178  -21.6940   36.7645 N   0  0  0  0  0  0  0  0  0  0  0  0
   34.7515  -22.2422   35.8788 H   0  0  0  0  0  0  0  0  0  0  0  0
   36.0461  -21.4932   37.4555 C   0  0  0  0  0  0  0  0  0  0  0  0
   37.1186  -20.8995   36.8094 C   0  0  0  0  0  0  0  0  0  0  0  0
   38.2665  -20.6688   37.5278 C   0  0  0  0  0  0  0  0  0  0  0  0
   38.4197  -20.9930   38.8523 C   0  0  0  0  0  0  0  0  0  0  0  0
   37.3542  -21.5903   39.5133 C   0  0  0  0  0  0  0  0  0  0  0  0
   36.1962  -21.8264   38.8053 C   0  0  0  0  0  0  0  0  0  0  0  0
  1  2  1  0  0  0
  2  3  2  0  0  0
  2  4  1  0  0  0
  4  5  1  0  0  0
  5  6  2  0  0  0
  6  7  1  0  0  0
  7  8  2  0  0  0
  8 15  1  0  0  0
 15 16  2  0  0  0
 16 17  1  0  0  0
 17 18  2  0  0  0
 18 21  1  0  0  0
 21 22  1  0  0  0
 21 23  1  0  0  0
 21 24  1  0  0  0
 18 19  1  0  0  0
 19 20  2  0  0  0
  8  9  1  0  0  0
  9 10  2  0  0  0
 10 11  1  0  0  0
 11 25  1  0  0  0
 25 27  1  0  0  0
 27 28  2  0  0  0
 28 29  1  0  0  0
 29 30  2  0  0  0
 30 31  1  0  0  0
 31 32  2  0  0  0
 11 12  1  0  0  0
 12 13  1  0  0  0
 13 14  1  0  0  0
 13  4  1  0  0  0
 10  5  1  0  0  0
 32 27  1  0  0  0
 20 15  1  0  0  0
 25 26  1  0  0  0
M  END
> <minimizedAffinity>
-6.36516

> <CNNscore>
0.4546866417

> <CNNaffinity>
5.1946306229

> <CNN_VS>
2.3619291782

> <CNNaffinity_variance>
0.1076239794

$$$$
[H]c1c([H])c([H])c(N([H])[C@@]2([H])c3c([H])c(-c4c([H])c([H])c(C(F)(F)F)c([H])c4[H])c([H])c([H])c3N(C(=O)C([H])([H])[H])[C@@]([H])(C([H])([H])[H])C2([H])[H])c([H])c1[H]


 32 35  0  0  0  0  0  0  0  0999 V2000
   40.3538  -22.2119   39.3652 C   0  0  0  0  0  0  0  0  0  0  0  0
   40.3996  -21.3854   38.1520 C   0  0  0  0  0  0  0  0  0  0  0  0
   41.5415  -20.9296   37.8022 O   0  0  0  0  0  0  0  0  0  0  0  0
   39.2644  -21.0723   37.3775 N   0  0  0  0  0  0  0  0  0  0  0  0
   37.9858  -21.6647   37.4622 C   0  0  0  0  0  0  0  0  0  0  0  0
   37.8781  -22.9947   37.8528 C   0  0  0  0  0  0  0  0  0  0  0  0
   36.6158  -23.5187   37.9972 C   0  0  0  0  0  0  0  0  0  0  0  0
   35.4462  -22.8159   37.7796 C   0  0  0  0  0  0  0  0  0  0  0  0
   35.5855  -21.5065   37.3871 C   0  0  0  0  0  0  0  0  0  0  0  0
   36.8497  -20.9293   37.2276 C   0  0  0  0  0  0  0  0  0  0  0  0
   36.8687  -19.5442   36.7401 C   0  0  0  0  0  0  0  0  0  0  0  0
   38.2540  -18.9646   36.6644 C   0  0  0  0  0  0  0  0  0  0  0  0
   39.3383  -19.9573   36.4116 C   0  0  0  0  0  0  0  0  0  0  0  0
   39.4976  -20.4677   35.0288 C   0  0  0  0  0  0  0  0  0  0  0  0
   34.1186  -23.4060   37.9813 C   0  0  0  0  0  0  0  0  0  0  0  0
   33.8300  -24.0883   39.1557 C   0  0  0  0  0  0  0  0  0  0  0  0
   32.5893  -24.6194   39.4292 C   0  0  0  0  0  0  0  0  0  0  0  0
   31.5839  -24.4680   38.4845 C   0  0  0  0  0  0  0  0  0  0  0  0
   31.8344  -23.7993   37.3061 C   0  0  0  0  0  0  0  0  0  0  0  0
   33.1065  -23.2745   37.0682 C   0  0  0  0  0  0  0  0  0  0  0  0
   30.2310  -25.0464   38.8099 C   0  0  0  0  0  0  0  0  0  0  0  0
   29.8086  -25.8723   37.7815 F   0  0  0  0  0  0  0  0  0  0  0  0
   29.2852  -24.0840   38.9966 F   0  0  0  0  0  0  0  0  0  0  0  0
   30.4052  -25.8793   39.9119 F   0  0  0  0  0  0  0  0  0  0  0  0
   36.2679  -19.5430   35.3905 N   0  0  0  0  0  0  0  0  0  0  0  0
   36.8896  -19.8380   34.6057 H   0  0  0  0  0  0  0  0  0  0  0  0
   34.9139  -19.1501   35.1939 C   0  0  0  0  0  0  0  0  0  0  0  0
   33.9210  -19.6325   36.0317 C   0  0  0  0  0  0  0  0  0  0  0  0
   32.6361  -19.1831   35.8467 C   0  0  0  0  0  0  0  0  0  0  0  0
   32.2713  -18.2829   34.8775 C   0  0  0  0  0  0  0  0  0  0  0  0
   33.2549  -17.7916   34.0290 C   0  0  0  0  0  0  0  0  0  0  0  0
   34.5481  -18.2326   34.2039 C   0  0  0  0  0  0  0  0  0  0  0  0
  1  2  1  0  0  0
  2  3  2  0  0  0
  2  4  1  0  0  0
  4  5  1  0  0  0
  5  6  2  0  0  0
  6  7  1  0  0  0
  7  8  2  0  0  0
  8 15  1  0  0  0
 15 16  2  0  0  0
 16 17  1  0  0  0
 17 18  2  0  0  0
 18 21  1  0  0  0
 21 22  1  0  0  0
 21 23  1  0  0  0
 21 24  1  0  0  0
 18 19  1  0  0  0
 19 20  2  0  0  0
  8  9  1  0  0  0
  9 10  2  0  0  0
 10 11  1  0  0  0
 11 25  1  0  0  0
 25 27  1  0  0  0
 27 28  2  0  0  0
 28 29  1  0  0  0
 29 30  2  0  0  0
 30 31  1  0  0  0
 31 32  2  0  0  0
 11 12  1  0  0  0
 12 13  1  0  0  0
 13 14  1  0  0  0
 13  4  1  0  0  0
 10  5  1  0  0  0
 32 27  1  0  0  0
 20 15  1  0  0  0
 25 26  1  0  0  0
M  END
> <minimizedAffinity>
-3.92593

> <CNNscore>
0.4303330779

> <CNNaffinity>
5.2276792526

> <CNN_VS>
2.2496433258

> <CNNaffinity_variance>
0.2501839697

$$$$
[H]c1c([H])c([H])c(N([H])[C@@]2([H])c3c([H])c(-c4c([H])c([H])c(C(F)(F)F)c([H])c4[H])c([H])c([H])c3N(C(=O)C([H])([H])[H])[C@@]([H])(C([H])([H])[H])C2([H])[H])c([H])c1[H]


 32 35  0  0  0  0  0  0  0  0999 V2000
   38.7362  -18.9376   32.6221 C   0  0  0  0  0  0  0  0  0  0  0  0
   39.4001  -18.9649   33.9318 C   0  0  0  0  0  0  0  0  0  0  0  0
   40.6331  -18.6295   33.9653 O   0  0  0  0  0  0  0  0  0  0  0  0
   38.7549  -19.3439   35.1263 N   0  0  0  0  0  0  0  0  0  0  0  0
   37.3680  -19.5114   35.3289 C   0  0  0  0  0  0  0  0  0  0  0  0
   36.4760  -18.7401   34.5923 C   0  0  0  0  0  0  0  0  0  0  0  0
   35.1332  -18.9804   34.7594 C   0  0  0  0  0  0  0  0  0  0  0  0
   34.6079  -19.9344   35.6099 C   0  0  0  0  0  0  0  0  0  0  0  0
   35.5142  -20.6749   36.3298 C   0  0  0  0  0  0  0  0  0  0  0  0
   36.8906  -20.4668   36.1926 C   0  0  0  0  0  0  0  0  0  0  0  0
   37.7543  -21.2736   37.0642 C   0  0  0  0  0  0  0  0  0  0  0  0
   39.2197  -21.0526   36.8103 C   0  0  0  0  0  0  0  0  0  0  0  0
   39.5728  -19.6943   36.3052 C   0  0  0  0  0  0  0  0  0  0  0  0
   39.5942  -18.5791   37.2820 C   0  0  0  0  0  0  0  0  0  0  0  0
   33.1671  -20.1813   35.7296 C   0  0  0  0  0  0  0  0  0  0  0  0
   32.7028  -21.2431   36.4945 C   0  0  0  0  0  0  0  0  0  0  0  0
   31.3638  -21.4977   36.6901 C   0  0  0  0  0  0  0  0  0  0  0  0
   30.4375  -20.6556   36.0908 C   0  0  0  0  0  0  0  0  0  0  0  0
   30.8613  -19.5934   35.3222 C   0  0  0  0  0  0  0  0  0  0  0  0
   32.2289  -19.3693   35.1500 C   0  0  0  0  0  0  0  0  0  0  0  0
   28.9780  -20.9457   36.3283 C   0  0  0  0  0  0  0  0  0  0  0  0
   28.4614  -21.6751   35.2702 F   0  0  0  0  0  0  0  0  0  0  0  0
   28.2372  -19.8105   36.4626 F   0  0  0  0  0  0  0  0  0  0  0  0
   28.9113  -21.7899   37.4334 F   0  0  0  0  0  0  0  0  0  0  0  0
   37.4425  -20.9029   38.4599 N   0  0  0  0  0  0  0  0  0  0  0  0
   37.3990  -19.8814   38.6698 H   0  0  0  0  0  0  0  0  0  0  0  0
   37.2238  -21.9023   39.4497 C   0  0  0  0  0  0  0  0  0  0  0  0
   36.4733  -23.0275   39.1482 C   0  0  0  0  0  0  0  0  0  0  0  0
   36.3353  -23.9970   40.1115 C   0  0  0  0  0  0  0  0  0  0  0  0
   36.8954  -23.9201   41.3618 C   0  0  0  0  0  0  0  0  0  0  0  0
   37.6490  -22.7976   41.6796 C   0  0  0  0  0  0  0  0  0  0  0  0
   37.7969  -21.8179   40.7225 C   0  0  0  0  0  0  0  0  0  0  0  0
  1  2  1  0  0  0
  2  3  2  0  0  0
  2  4  1  0  0  0
  4  5  1  0  0  0
  5  6  2  0  0  0
  6  7  1  0  0  0
  7  8  2  0  0  0
  8 15  1  0  0  0
 15 16  2  0  0  0
 16 17  1  0  0  0
 17 18  2  0  0  0
 18 21  1  0  0  0
 21 22  1  0  0  0
 21 23  1  0  0  0
 21 24  1  0  0  0
 18 19  1  0  0  0
 19 20  2  0  0  0
  8  9  1  0  0  0
  9 10  2  0  0  0
 10 11  1  0  0  0
 11 25  1  0  0  0
 25 27  1  0  0  0
 27 28  2  0  0  0
 28 29  1  0  0  0
 29 30  2  0  0  0
 30 31  1  0  0  0
 31 32  2  0  0  0
 11 12  1  0  0  0
 12 13  1  0  0  0
 13 14  1  0  0  0
 13  4  1  0  0  0
 10  5  1  0  0  0
 32 27  1  0  0  0
 20 15  1  0  0  0
 25 26  1  0  0  0
M  END
> <minimizedAffinity>
-4.34263

> <CNNscore>
0.4202151597

> <CNNaffinity>
5.4534621239

> <CNN_VS>
2.2916274071

> <CNNaffinity_variance>
0.6732044220

$$$$
[H]c1c([H])c([H])c(N([H])[C@@]2([H])c3c([H])c(-c4c([H])c([H])c(C(F)(F)F)c([H])c4[H])c([H])c([H])c3N(C(=O)C([H])([H])[H])[C@@]([H])(C([H])([H])[H])C2([H])[H])c([H])c1[H]


 32 35  0  0  0  0  0  0  0  0999 V2000
   34.8621  -15.0077   36.7832 C   0  0  0  0  0  0  0  0  0  0  0  0
   34.0871  -15.7787   35.8025 C   0  0  0  0  0  0  0  0  0  0  0  0
   33.3234  -15.1193   35.0176 O   0  0  0  0  0  0  0  0  0  0  0  0
   34.1403  -17.1831   35.6954 N   0  0  0  0  0  0  0  0  0  0  0  0
   35.0810  -18.0478   36.2956 C   0  0  0  0  0  0  0  0  0  0  0  0
   36.3743  -17.5914   36.5237 C   0  0  0  0  0  0  0  0  0  0  0  0
   37.2435  -18.4320   37.1768 C   0  0  0  0  0  0  0  0  0  0  0  0
   36.9217  -19.7002   37.6212 C   0  0  0  0  0  0  0  0  0  0  0  0
   35.6387  -20.1258   37.3741 C   0  0  0  0  0  0  0  0  0  0  0  0
   34.7186  -19.3051   36.7134 C   0  0  0  0  0  0  0  0  0  0  0  0
   33.4010  -19.8972   36.4489 C   0  0  0  0  0  0  0  0  0  0  0  0
   32.4409  -18.9357   35.8050 C   0  0  0  0  0  0  0  0  0  0  0  0
   33.0757  -17.8884   34.9534 C   0  0  0  0  0  0  0  0  0  0  0  0
   33.5482  -18.2879   33.6061 C   0  0  0  0  0  0  0  0  0  0  0  0
   37.8718  -20.5498   38.3469 C   0  0  0  0  0  0  0  0  0  0  0  0
   37.4331  -21.3506   39.3930 C   0  0  0  0  0  0  0  0  0  0  0  0
   38.2626  -22.2090   40.0795 C   0  0  0  0  0  0  0  0  0  0  0  0
   39.5989  -22.2719   39.7098 C   0  0  0  0  0  0  0  0  0  0  0  0
   40.0707  -21.4897   38.6783 C   0  0  0  0  0  0  0  0  0  0  0  0
   39.1957  -20.6331   38.0068 C   0  0  0  0  0  0  0  0  0  0  0  0
   40.4856  -23.2269   40.4666 C   0  0  0  0  0  0  0  0  0  0  0  0
   39.9156  -23.5340   41.6909 F   0  0  0  0  0  0  0  0  0  0  0  0
   41.7273  -22.7149   40.6933 F   0  0  0  0  0  0  0  0  0  0  0  0
   40.4960  -24.4196   39.7484 F   0  0  0  0  0  0  0  0  0  0  0  0
   33.6080  -21.0511   35.5500 N   0  0  0  0  0  0  0  0  0  0  0  0
   34.3406  -20.9407   34.8147 H   0  0  0  0  0  0  0  0  0  0  0  0
   32.8335  -22.2369   35.6931 C   0  0  0  0  0  0  0  0  0  0  0  0
   31.6219  -22.3603   35.0320 C   0  0  0  0  0  0  0  0  0  0  0  0
   30.9332  -23.5432   35.1478 C   0  0  0  0  0  0  0  0  0  0  0  0
   31.3709  -24.6159   35.8830 C   0  0  0  0  0  0  0  0  0  0  0  0
   32.5826  -24.5068   36.5528 C   0  0  0  0  0  0  0  0  0  0  0  0
   33.2847  -23.3266   36.4444 C   0  0  0  0  0  0  0  0  0  0  0  0
  1  2  1  0  0  0
  2  3  2  0  0  0
  2  4  1  0  0  0
  4  5  1  0  0  0
  5  6  2  0  0  0
  6  7  1  0  0  0
  7  8  2  0  0  0
  8 15  1  0  0  0
 15 16  2  0  0  0
 16 17  1  0  0  0
 17 18  2  0  0  0
 18 21  1  0  0  0
 21 22  1  0  0  0
 21 23  1  0  0  0
 21 24  1  0  0  0
 18 19  1  0  0  0
 19 20  2  0  0  0
  8  9  1  0  0  0
  9 10  2  0  0  0
 10 11  1  0  0  0
 11 25  1  0  0  0
 25 27  1  0  0  0
 27 28  2  0  0  0
 28 29  1  0  0  0
 29 30  2  0  0  0
 30 31  1  0  0  0
 31 32  2  0  0  0
 11 12  1  0  0  0
 12 13  1  0  0  0
 13 14  1  0  0  0
 13  4  1  0  0  0
 10  5  1  0  0  0
 32 27  1  0  0  0
 20 15  1  0  0  0
 25 26  1  0  0  0
M  END
> <minimizedAffinity>
-5.35148

> <CNNscore>
0.4194777012

> <CNNaffinity>
4.9957895279

> <CNN_VS>
2.0956223011

> <CNNaffinity_variance>
0.1377935708

$$$$
[H]c1c([H])c([H])c(N([H])[C@@]2([H])c3c([H])c(-c4c([H])c([H])c(C(F)(F)F)c([H])c4[H])c([H])c([H])c3N(C(=O)C([H])([H])[H])[C@@]([H])(C([H])([H])[H])C2([H])[H])c([H])c1[H]


 32 35  0  0  0  0  0  0  0  0999 V2000
   41.7152  -22.3011   33.9564 C   0  0  0  0  0  0  0  0  0  0  0  0
   41.0603  -21.0746   33.4836 C   0  0  0  0  0  0  0  0  0  0  0  0
   41.6211  -20.4514   32.5187 O   0  0  0  0  0  0  0  0  0  0  0  0
   39.8713  -20.5606   34.0392 N   0  0  0  0  0  0  0  0  0  0  0  0
   38.9931  -21.2175   34.9280 C   0  0  0  0  0  0  0  0  0  0  0  0
   38.8643  -22.6001   34.8574 C   0  0  0  0  0  0  0  0  0  0  0  0
   38.0586  -23.2156   35.7853 C   0  0  0  0  0  0  0  0  0  0  0  0
   37.3665  -22.5556   36.7826 C   0  0  0  0  0  0  0  0  0  0  0  0
   37.5078  -21.1894   36.8215 C   0  0  0  0  0  0  0  0  0  0  0  0
   38.3175  -20.5189   35.8986 C   0  0  0  0  0  0  0  0  0  0  0  0
   38.3345  -19.0541   36.0012 C   0  0  0  0  0  0  0  0  0  0  0  0
   39.2814  -18.4058   35.0296 C   0  0  0  0  0  0  0  0  0  0  0  0
   39.4942  -19.1599   33.7604 C   0  0  0  0  0  0  0  0  0  0  0  0
   38.4274  -19.0960   32.7328 C   0  0  0  0  0  0  0  0  0  0  0  0
   36.5459  -23.2579   37.7750 C   0  0  0  0  0  0  0  0  0  0  0  0
   36.6342  -22.9187   39.1185 C   0  0  0  0  0  0  0  0  0  0  0  0
   35.8546  -23.5019   40.0923 C   0  0  0  0  0  0  0  0  0  0  0  0
   34.9424  -24.4762   39.7116 C   0  0  0  0  0  0  0  0  0  0  0  0
   34.8291  -24.8407   38.3876 C   0  0  0  0  0  0  0  0  0  0  0  0
   35.6378  -24.2235   37.4310 C   0  0  0  0  0  0  0  0  0  0  0  0
   34.0914  -25.0922   40.7919 C   0  0  0  0  0  0  0  0  0  0  0  0
   33.3855  -24.1053   41.4598 F   0  0  0  0  0  0  0  0  0  0  0  0
   34.8299  -25.7789   41.7076 F   0  0  0  0  0  0  0  0  0  0  0  0
   33.1315  -25.8711   40.1513 F   0  0  0  0  0  0  0  0  0  0  0  0
   36.9623  -18.5769   35.7330 N   0  0  0  0  0  0  0  0  0  0  0  0
   36.3398  -19.2276   35.2054 H   0  0  0  0  0  0  0  0  0  0  0  0
   36.5364  -17.2922   36.1740 C   0  0  0  0  0  0  0  0  0  0  0  0
   37.2565  -16.6164   37.1462 C   0  0  0  0  0  0  0  0  0  0  0  0
   36.8475  -15.3542   37.5016 C   0  0  0  0  0  0  0  0  0  0  0  0
   35.7629  -14.7172   36.9530 C   0  0  0  0  0  0  0  0  0  0  0  0
   35.0301  -15.3823   35.9785 C   0  0  0  0  0  0  0  0  0  0  0  0
   35.4298  -16.6484   35.6113 C   0  0  0  0  0  0  0  0  0  0  0  0
  1  2  1  0  0  0
  2  3  2  0  0  0
  2  4  1  0  0  0
  4  5  1  0  0  0
  5  6  2  0  0  0
  6  7  1  0  0  0
  7  8  2  0  0  0
  8 15  1  0  0  0
 15 16  2  0  0  0
 16 17  1  0  0  0
 17 18  2  0  0  0
 18 21  1  0  0  0
 21 22  1  0  0  0
 21 23  1  0  0  0
 21 24  1  0  0  0
 18 19  1  0  0  0
 19 20  2  0  0  0
  8  9  1  0  0  0
  9 10  2  0  0  0
 10 11  1  0  0  0
 11 25  1  0  0  0
 25 27  1  0  0  0
 27 28  2  0  0  0
 28 29  1  0  0  0
 29 30  2  0  0  0
 30 31  1  0  0  0
 31 32  2  0  0  0
 11 12  1  0  0  0
 12 13  1  0  0  0
 13 14  1  0  0  0
 13  4  1  0  0  0
 10  5  1  0  0  0
 32 27  1  0  0  0
 20 15  1  0  0  0
 25 26  1  0  0  0
M  END
> <minimizedAffinity>
-3.58049

> <CNNscore>
0.4131056964

> <CNNaffinity>
5.3636436462

> <CNN_VS>
2.2157516479

> <CNNaffinity_variance>
0.5549870729

$$$$
[H]c1nc(OC2([H])C([H])([H])[C@@]3([H])N(C(=O)OC(C([H])([H])[H])(C([H])([H])[H])C([H])([H])[H])[C@]([H])(C2([H])[H])C([H])([H])C3([H])[H])c([N+](=O)[O-])c(N([H])c2c([H])c([H])c(S(=O)(=O)C([H])([H])[H])c([H])c2[H])n1


 37 40  0  0  0  0  0  0  0  0999 V2000
   38.2668  -20.8775   38.3705 C   0  0  0  0  0  0  0  0  0  0  0  0
   37.1327  -21.2382   39.2836 N   0  0  0  0  0  0  0  0  0  0  0  0
   35.7926  -20.5875   39.1082 C   0  0  0  0  0  0  0  0  0  0  0  0
   35.5866  -19.5762   38.0197 N   0  0  0  0  0  0  0  0  0  0  0  0
   36.7206  -19.2156   37.1066 C   0  0  0  0  0  0  0  0  0  0  0  0
   38.0607  -19.8662   37.2820 C   0  0  0  0  0  0  0  0  0  0  0  0
   39.1948  -19.5056   36.3688 N   0  0  0  0  0  0  0  0  0  0  0  0
   40.1854  -18.4573   36.7811 O   0  0  0  0  0  0  0  0  0  0  0  0
   39.6309  -19.9758   35.0129 O   0  0  0  0  0  0  0  0  0  0  0  0
   36.5146  -18.2042   36.0181 N   0  0  0  0  0  0  0  0  0  0  0  0
   36.8676  -18.5455   34.6007 H   0  0  0  0  0  0  0  0  0  0  0  0
   35.9555  -16.8518   36.3470 C   0  0  0  0  0  0  0  0  0  0  0  0
   36.7355  -15.9083   37.2139 C   0  0  0  0  0  0  0  0  0  0  0  0
   36.1763  -14.5559   37.5428 C   0  0  0  0  0  0  0  0  0  0  0  0
   34.8372  -14.1468   37.0048 C   0  0  0  0  0  0  0  0  0  0  0  0
   34.0572  -15.0903   36.1379 C   0  0  0  0  0  0  0  0  0  0  0  0
   34.6163  -16.4427   35.8091 C   0  0  0  0  0  0  0  0  0  0  0  0
   34.2780  -12.7944   37.3337 S   0  0  0  0  0  0  0  0  0  0  0  0
   33.7188  -11.4419   37.6627 C   0  0  0  0  0  0  0  0  0  0  0  0
   35.1061  -12.1862   36.2409 O   0  0  0  0  0  0  0  0  0  0  0  0
   33.4499  -13.4026   38.4266 O   0  0  0  0  0  0  0  0  0  0  0  0
   39.6069  -21.5281   38.5458 O   0  0  0  0  0  0  0  0  0  0  0  0
   40.5344  -20.9347   39.3171 C   0  0  0  0  0  0  0  0  0  0  0  0
   39.4655  -20.8115   40.3623 O   0  0  0  0  0  0  0  0  0  0  0  0
   41.9796  -20.5384   39.2529 N   0  0  0  0  0  0  0  0  0  0  0  0
   42.9021  -20.7536   38.0899 C   0  0  0  0  0  0  0  0  0  0  0  0
   44.2488  -20.2055   38.4587 C   0  0  0  0  0  0  0  0  0  0  0  0
   44.1586  -19.6514   39.8497 C   0  0  0  0  0  0  0  0  0  0  0  0
   42.7562  -19.8571   40.3405 C   0  0  0  0  0  0  0  0  0  0  0  0
   41.3006  -20.1903   40.5633 C   0  0  0  0  0  0  0  0  0  0  0  0
   40.6561  -20.8683   39.3907 C   0  0  0  0  0  0  0  0  0  0  0  0
   41.4568  -21.1500   38.1541 C   0  0  0  0  0  0  0  0  0  0  0  0
   39.8898  -21.6127   38.1446 O   0  0  0  0  0  0  0  0  0  0  0  0
   39.6576  -23.3034   39.4046 C   0  0  0  0  0  0  0  0  0  0  0  0
   40.0288  -23.0956   37.9662 C   0  0  0  0  0  0  0  0  0  0  0  0
   40.4000  -22.8877   36.5278 C   0  0  0  0  0  0  0  0  0  0  0  0
   40.1678  -24.5784   37.7878 C   0  0  0  0  0  0  0  0  0  0  0  0
 34 35  1  0  0  0
 35 36  1  0  0  0
 35 37  1  0  0  0
 35 33  1  0  0  0
 33 23  1  0  0  0
 23 24  2  0  0  0
 23 25  1  0  0  0
 25 26  1  0  0  0
 26 27  1  0  0  0
 27 28  1  0  0  0
 28 29  1  0  0  0
 29 30  1  0  0  0
 30 31  1  0  0  0
 31 22  1  0  0  0
 22  1  1  0  0  0
  1  2  2  0  0  0
  2  3  1  0  0  0
  3  4  2  0  0  0
  4  5  1  0  0  0
  5 10  1  0  0  0
 10 12  1  0  0  0
 12 13  2  0  0  0
 13 14  1  0  0  0
 14 15  2  0  0  0
 15 18  1  0  0  0
 18 19  1  0  0  0
 18 20  2  0  0  0
 18 21  2  0  0  0
 15 16  1  0  0  0
 16 17  2  0  0  0
  5  6  2  0  0  0
  6  7  1  0  0  0
  7  8  2  0  0  0
  7  9  1  0  0  0
 31 32  1  0  0  0
 29 25  1  0  0  0
  6  1  1  0  0  0
 32 26  1  0  0  0
 17 12  1  0  0  0
 10 11  1  0  0  0
M  CHG 1   7   1
M  CHG 1   9  -1
M  END
> <minimizedAffinity>
-6.78559

> <CNNscore>
0.1276961416

> <CNNaffinity>
5.2039632797

> <CNN_VS>
0.6645260453

> <CNNaffinity_variance>
0.5334108472

$$$$
[H]c1nc(OC2([H])C([H])([H])[C@@]3([H])N(C(=O)OC(C([H])([H])[H])(C([H])([H])[H])C([H])([H])[H])[C@]([H])(C2([H])[H])C([H])([H])C3([H])[H])c([N+](=O)[O-])c(N([H])c2c([H])c([H])c(S(=O)(=O)C([H])([H])[H])c([H])c2[H])n1


 37 40  0  0  0  0  0  0  0  0999 V2000
   32.5841  -21.1345   36.9539 C   0  0  0  0  0  0  0  0  0  0  0  0
   32.9669  -21.5335   38.3482 N   0  0  0  0  0  0  0  0  0  0  0  0
   34.1507  -20.8957   39.0126 C   0  0  0  0  0  0  0  0  0  0  0  0
   34.9519  -19.8587   38.2826 N   0  0  0  0  0  0  0  0  0  0  0  0
   34.5692  -19.4596   36.8883 C   0  0  0  0  0  0  0  0  0  0  0  0
   33.3853  -20.0975   36.2239 C   0  0  0  0  0  0  0  0  0  0  0  0
   33.0025  -19.6984   34.8295 N   0  0  0  0  0  0  0  0  0  0  0  0
   33.7271  -20.2871   33.6554 O   0  0  0  0  0  0  0  0  0  0  0  0
   31.9759  -18.7666   34.2570 O   0  0  0  0  0  0  0  0  0  0  0  0
   35.3704  -18.4226   36.1583 N   0  0  0  0  0  0  0  0  0  0  0  0
   36.4214  -18.8427   35.1740 H   0  0  0  0  0  0  0  0  0  0  0  0
   35.1204  -16.9656   36.4127 C   0  0  0  0  0  0  0  0  0  0  0  0
   33.9427  -16.2850   35.7805 C   0  0  0  0  0  0  0  0  0  0  0  0
   33.6929  -14.8281   36.0350 C   0  0  0  0  0  0  0  0  0  0  0  0
   34.6208  -14.0517   36.9217 C   0  0  0  0  0  0  0  0  0  0  0  0
   35.7985  -14.7323   37.5539 C   0  0  0  0  0  0  0  0  0  0  0  0
   36.0484  -16.1892   37.2995 C   0  0  0  0  0  0  0  0  0  0  0  0
   34.3710  -12.5947   37.1762 S   0  0  0  0  0  0  0  0  0  0  0  0
   34.1211  -11.1377   37.4307 C   0  0  0  0  0  0  0  0  0  0  0  0
   35.2389  -12.2412   36.0050 O   0  0  0  0  0  0  0  0  0  0  0  0
   33.5030  -12.9481   38.3475 O   0  0  0  0  0  0  0  0  0  0  0  0
   31.4002  -21.7723   36.2894 O   0  0  0  0  0  0  0  0  0  0  0  0
   30.1774  -21.6399   36.8321 C   0  0  0  0  0  0  0  0  0  0  0  0
   30.1693  -20.2500   36.2682 O   0  0  0  0  0  0  0  0  0  0  0  0
   29.1998  -22.4434   37.6374 N   0  0  0  0  0  0  0  0  0  0  0  0
   29.3980  -23.8512   38.1158 C   0  0  0  0  0  0  0  0  0  0  0  0
   28.1730  -24.2581   38.8798 C   0  0  0  0  0  0  0  0  0  0  0  0
   27.2176  -23.1018   38.8737 C   0  0  0  0  0  0  0  0  0  0  0  0
   27.8522  -21.9803   38.1058 C   0  0  0  0  0  0  0  0  0  0  0  0
   28.7208  -21.0449   37.2998 C   0  0  0  0  0  0  0  0  0  0  0  0
   30.0371  -21.6446   36.9024 C   0  0  0  0  0  0  0  0  0  0  0  0
   30.3757  -23.0477   37.3104 C   0  0  0  0  0  0  0  0  0  0  0  0
   31.4936  -22.2396   36.4347 O   0  0  0  0  0  0  0  0  0  0  0  0
   32.2969  -24.1703   36.0781 C   0  0  0  0  0  0  0  0  0  0  0  0
   31.5740  -23.1521   35.2469 C   0  0  0  0  0  0  0  0  0  0  0  0
   30.8512  -22.1339   34.4157 C   0  0  0  0  0  0  0  0  0  0  0  0
   31.6544  -24.0646   34.0591 C   0  0  0  0  0  0  0  0  0  0  0  0
 34 35  1  0  0  0
 35 36  1  0  0  0
 35 37  1  0  0  0
 35 33  1  0  0  0
 33 23  1  0  0  0
 23 24  2  0  0  0
 23 25  1  0  0  0
 25 26  1  0  0  0
 26 27  1  0  0  0
 27 28  1  0  0  0
 28 29  1  0  0  0
 29 30  1  0  0  0
 30 31  1  0  0  0
 31 22  1  0  0  0
 22  1  1  0  0  0
  1  2  2  0  0  0
  2  3  1  0  0  0
  3  4  2  0  0  0
  4  5  1  0  0  0
  5 10  1  0  0  0
 10 12  1  0  0  0
 12 13  2  0  0  0
 13 14  1  0  0  0
 14 15  2  0  0  0
 15 18  1  0  0  0
 18 19  1  0  0  0
 18 20  2  0  0  0
 18 21  2  0  0  0
 15 16  1  0  0  0
 16 17  2  0  0  0
  5  6  2  0  0  0
  6  7  1  0  0  0
  7  8  2  0  0  0
  7  9  1  0  0  0
 31 32  1  0  0  0
 29 25  1  0  0  0
  6  1  1  0  0  0
 32 26  1  0  0  0
 17 12  1  0  0  0
 10 11  1  0  0  0
M  CHG 1   7   1
M  CHG 1   9  -1
M  END
> <minimizedAffinity>
-7.04402

> <CNNscore>
0.0878916755

> <CNNaffinity>
4.9269952774

> <CNN_VS>
0.4330418706

> <CNNaffinity_variance>
0.5705954432

$$$$
[H]c1nc(OC2([H])C([H])([H])[C@@]3([H])N(C(=O)OC(C([H])([H])[H])(C([H])([H])[H])C([H])([H])[H])[C@]([H])(C2([H])[H])C([H])([H])C3([H])[H])c([N+](=O)[O-])c(N([H])c2c([H])c([H])c(S(=O)(=O)C([H])([H])[H])c([H])c2[H])n1


 37 40  0  0  0  0  0  0  0  0999 V2000
   32.9902  -21.4423   36.0031 C   0  0  0  0  0  0  0  0  0  0  0  0
   32.4578  -21.2939   34.6087 N   0  0  0  0  0  0  0  0  0  0  0  0
   33.0025  -20.2256   33.7076 C   0  0  0  0  0  0  0  0  0  0  0  0
   34.0797  -19.3056   34.2010 N   0  0  0  0  0  0  0  0  0  0  0  0
   34.6121  -19.4540   35.5954 C   0  0  0  0  0  0  0  0  0  0  0  0
   34.0674  -20.5223   36.4965 C   0  0  0  0  0  0  0  0  0  0  0  0
   34.5998  -20.6706   37.8910 N   0  0  0  0  0  0  0  0  0  0  0  0
   35.9257  -21.3333   38.1210 O   0  0  0  0  0  0  0  0  0  0  0  0
   34.0896  -20.2849   39.2478 O   0  0  0  0  0  0  0  0  0  0  0  0
   35.6893  -18.5340   36.0888 N   0  0  0  0  0  0  0  0  0  0  0  0
   37.0805  -19.0534   36.3001 H   0  0  0  0  0  0  0  0  0  0  0  0
   35.3751  -17.0946   36.3708 C   0  0  0  0  0  0  0  0  0  0  0  0
   34.1182  -16.4811   35.8288 C   0  0  0  0  0  0  0  0  0  0  0  0
   33.8041  -15.0418   36.1108 C   0  0  0  0  0  0  0  0  0  0  0  0
   34.7469  -14.2159   36.9348 C   0  0  0  0  0  0  0  0  0  0  0  0
   36.0038  -14.8294   37.4768 C   0  0  0  0  0  0  0  0  0  0  0  0
   36.3179  -16.2687   37.1948 C   0  0  0  0  0  0  0  0  0  0  0  0
   34.4328  -12.7765   37.2168 S   0  0  0  0  0  0  0  0  0  0  0  0
   34.1187  -11.3371   37.4988 C   0  0  0  0  0  0  0  0  0  0  0  0
   33.5350  -13.1932   38.3439 O   0  0  0  0  0  0  0  0  0  0  0  0
   35.3306  -12.3597   36.0898 O   0  0  0  0  0  0  0  0  0  0  0  0
   32.4456  -22.5106   36.9043 O   0  0  0  0  0  0  0  0  0  0  0  0
   31.1223  -22.7457   36.9344 C   0  0  0  0  0  0  0  0  0  0  0  0
   30.9822  -21.3983   37.5784 O   0  0  0  0  0  0  0  0  0  0  0  0
   30.1503  -23.8168   36.5370 N   0  0  0  0  0  0  0  0  0  0  0  0
   30.4960  -25.1251   35.8896 C   0  0  0  0  0  0  0  0  0  0  0  0
   29.2213  -25.8846   35.6698 C   0  0  0  0  0  0  0  0  0  0  0  0
   28.0878  -25.0458   36.1813 C   0  0  0  0  0  0  0  0  0  0  0  0
   28.6620  -23.7679   36.7173 C   0  0  0  0  0  0  0  0  0  0  0  0
   29.5047  -22.6011   37.1730 C   0  0  0  0  0  0  0  0  0  0  0  0
   30.9724  -22.7920   36.9287 C   0  0  0  0  0  0  0  0  0  0  0  0
   31.4680  -24.0539   36.2870 C   0  0  0  0  0  0  0  0  0  0  0  0
   32.5899  -22.9366   36.6901 O   0  0  0  0  0  0  0  0  0  0  0  0
   32.6533  -23.2324   38.7898 C   0  0  0  0  0  0  0  0  0  0  0  0
   33.3990  -23.7954   37.6163 C   0  0  0  0  0  0  0  0  0  0  0  0
   34.1447  -24.3584   36.4429 C   0  0  0  0  0  0  0  0  0  0  0  0
   34.2080  -24.6542   38.5426 C   0  0  0  0  0  0  0  0  0  0  0  0
 34 35  1  0  0  0
 35 36  1  0  0  0
 35 37  1  0  0  0
 35 33  1  0  0  0
 33 23  1  0  0  0
 23 24  2  0  0  0
 23 25  1  0  0  0
 25 26  1  0  0  0
 26 27  1  0  0  0
 27 28  1  0  0  0
 28 29  1  0  0  0
 29 30  1  0  0  0
 30 31  1  0  0  0
 31 22  1  0  0  0
 22  1  1  0  0  0
  1  2  2  0  0  0
  2  3  1  0  0  0
  3  4  2  0  0  0
  4  5  1  0  0  0
  5 10  1  0  0  0
 10 12  1  0  0  0
 12 13  2  0  0  0
 13 14  1  0  0  0
 14 15  2  0  0  0
 15 18  1  0  0  0
 18 19  1  0  0  0
 18 20  2  0  0  0
 18 21  2  0  0  0
 15 16  1  0  0  0
 16 17  2  0  0  0
  5  6  2  0  0  0
  6  7  1  0  0  0
  7  8  2  0  0  0
  7  9  1  0  0  0
 31 32  1  0  0  0
 29 25  1  0  0  0
  6  1  1  0  0  0
 32 26  1  0  0  0
 17 12  1  0  0  0
 10 11  1  0  0  0
M  CHG 1   7   1
M  CHG 1   9  -1
M  END
> <minimizedAffinity>
-6.77185

> <CNNscore>
0.0834147930

> <CNNaffinity>
5.0286431313

> <CNN_VS>
0.4194632173

> <CNNaffinity_variance>
0.4091703892

$$$$
[H]c1nc(OC2([H])C([H])([H])[C@@]3([H])N(C(=O)OC(C([H])([H])[H])(C([H])([H])[H])C([H])([H])[H])[C@]([H])(C2([H])[H])C([H])([H])C3([H])[H])c([N+](=O)[O-])c(N([H])c2c([H])c([H])c(S(=O)(=O)C([H])([H])[H])c([H])c2[H])n1


 37 40  0  0  0  0  0  0  0  0999 V2000
   37.9972  -20.7232   37.0320 C   0  0  0  0  0  0  0  0  0  0  0  0
   37.0777  -20.9203   38.2007 N   0  0  0  0  0  0  0  0  0  0  0  0
   35.9494  -19.9608   38.4373 C   0  0  0  0  0  0  0  0  0  0  0  0
   35.7404  -18.8041   37.5054 N   0  0  0  0  0  0  0  0  0  0  0  0
   36.6599  -18.6070   36.3368 C   0  0  0  0  0  0  0  0  0  0  0  0
   37.7882  -19.5665   36.1001 C   0  0  0  0  0  0  0  0  0  0  0  0
   38.7077  -19.3694   34.9314 N   0  0  0  0  0  0  0  0  0  0  0  0
   38.2873  -19.8163   33.5626 O   0  0  0  0  0  0  0  0  0  0  0  0
   40.0775  -18.7794   34.7711 O   0  0  0  0  0  0  0  0  0  0  0  0
   36.4509  -17.4503   35.4048 N   0  0  0  0  0  0  0  0  0  0  0  0
   36.8483  -17.5675   33.9632 H   0  0  0  0  0  0  0  0  0  0  0  0
   35.8445  -16.1766   35.9146 C   0  0  0  0  0  0  0  0  0  0  0  0
   36.7101  -15.1466   36.5777 C   0  0  0  0  0  0  0  0  0  0  0  0
   36.1036  -13.8729   37.0874 C   0  0  0  0  0  0  0  0  0  0  0  0
   34.6314  -13.6292   36.9340 C   0  0  0  0  0  0  0  0  0  0  0  0
   33.7658  -14.6593   36.2709 C   0  0  0  0  0  0  0  0  0  0  0  0
   34.3723  -15.9329   35.7612 C   0  0  0  0  0  0  0  0  0  0  0  0
   34.0249  -12.3556   37.4438 S   0  0  0  0  0  0  0  0  0  0  0  0
   33.4184  -11.0818   37.9535 C   0  0  0  0  0  0  0  0  0  0  0  0
   33.2665  -13.1312   38.4797 O   0  0  0  0  0  0  0  0  0  0  0  0
   34.7834  -11.5798   36.4078 O   0  0  0  0  0  0  0  0  0  0  0  0
   39.1256  -21.6826   36.7953 O   0  0  0  0  0  0  0  0  0  0  0  0
   40.3536  -21.3844   37.2539 C   0  0  0  0  0  0  0  0  0  0  0  0
   39.6897  -21.0154   38.5474 O   0  0  0  0  0  0  0  0  0  0  0  0
   41.7754  -21.3864   36.7759 N   0  0  0  0  0  0  0  0  0  0  0  0
   42.2471  -21.8011   35.4137 C   0  0  0  0  0  0  0  0  0  0  0  0
   43.7384  -21.6449   35.3721 C   0  0  0  0  0  0  0  0  0  0  0  0
   44.1884  -21.1337   36.7086 C   0  0  0  0  0  0  0  0  0  0  0  0
   42.9752  -20.9739   37.5762 C   0  0  0  0  0  0  0  0  0  0  0  0
   41.6047  -20.9137   38.2066 C   0  0  0  0  0  0  0  0  0  0  0  0
   40.5041  -21.3555   37.2881 C   0  0  0  0  0  0  0  0  0  0  0  0
   40.8253  -21.7991   35.8918 C   0  0  0  0  0  0  0  0  0  0  0  0
   39.2530  -21.8262   36.3356 O   0  0  0  0  0  0  0  0  0  0  0  0
   38.9801  -23.4939   37.6178 C   0  0  0  0  0  0  0  0  0  0  0  0
   38.9876  -23.2884   36.1320 C   0  0  0  0  0  0  0  0  0  0  0  0
   38.9951  -23.0829   34.6462 C   0  0  0  0  0  0  0  0  0  0  0  0
   38.7222  -24.7507   35.9285 C   0  0  0  0  0  0  0  0  0  0  0  0
 34 35  1  0  0  0
 35 36  1  0  0  0
 35 37  1  0  0  0
 35 33  1  0  0  0
 33 23  1  0  0  0
 23 24  2  0  0  0
 23 25  1  0  0  0
 25 26  1  0  0  0
 26 27  1  0  0  0
 27 28  1  0  0  0
 28 29  1  0  0  0
 29 30  1  0  0  0
 30 31  1  0  0  0
 31 22  1  0  0  0
 22  1  1  0  0  0
  1  2  2  0  0  0
  2  3  1  0  0  0
  3  4  2  0  0  0
  4  5  1  0  0  0
  5 10  1  0  0  0
 10 12  1  0  0  0
 12 13  2  0  0  0
 13 14  1  0  0  0
 14 15  2  0  0  0
 15 18  1  0  0  0
 18 19  1  0  0  0
 18 20  2  0  0  0
 18 21  2  0  0  0
 15 16  1  0  0  0
 16 17  2  0  0  0
  5  6  2  0  0  0
  6  7  1  0  0  0
  7  8  2  0  0  0
  7  9  1  0  0  0
 31 32  1  0  0  0
 29 25  1  0  0  0
  6  1  1  0  0  0
 32 26  1  0  0  0
 17 12  1  0  0  0
 10 11  1  0  0  0
M  CHG 1   7   1
M  CHG 1   9  -1
M  END
> <minimizedAffinity>
-6.66837

> <CNNscore>
0.0512116328

> <CNNaffinity>
5.0985336304

> <CNN_VS>
0.2611042261

> <CNNaffinity_variance>
0.4131946564

$$$$
[H]c1nc(OC2([H])C([H])([H])[C@@]3([H])N(C(=O)OC(C([H])([H])[H])(C([H])([H])[H])C([H])([H])[H])[C@]([H])(C2([H])[H])C([H])([H])C3([H])[H])c([N+](=O)[O-])c(N([H])c2c([H])c([H])c(S(=O)(=O)C([H])([H])[H])c([H])c2[H])n1


 37 40  0  0  0  0  0  0  0  0999 V2000
   38.7731  -20.1863   35.3648 C   0  0  0  0  0  0  0  0  0  0  0  0
   39.3483  -19.4849   34.1701 N   0  0  0  0  0  0  0  0  0  0  0  0
   38.5816  -18.3781   33.5091 C   0  0  0  0  0  0  0  0  0  0  0  0
   37.2396  -17.9726   34.0427 N   0  0  0  0  0  0  0  0  0  0  0  0
   36.6644  -18.6740   35.2374 C   0  0  0  0  0  0  0  0  0  0  0  0
   37.4311  -19.7808   35.8984 C   0  0  0  0  0  0  0  0  0  0  0  0
   36.8559  -20.4822   37.0930 N   0  0  0  0  0  0  0  0  0  0  0  0
   35.8933  -21.6172   36.9049 O   0  0  0  0  0  0  0  0  0  0  0  0
   37.0168  -20.3181   38.5753 O   0  0  0  0  0  0  0  0  0  0  0  0
   35.3224  -18.2684   35.7710 N   0  0  0  0  0  0  0  0  0  0  0  0
   34.2399  -19.2936   35.9357 H   0  0  0  0  0  0  0  0  0  0  0  0
   35.0631  -16.8378   36.1397 C   0  0  0  0  0  0  0  0  0  0  0  0
   36.0256  -16.1057   37.0272 C   0  0  0  0  0  0  0  0  0  0  0  0
   35.7662  -14.6751   37.3960 C   0  0  0  0  0  0  0  0  0  0  0  0
   34.5443  -13.9765   36.8772 C   0  0  0  0  0  0  0  0  0  0  0  0
   33.5818  -14.7086   35.9897 C   0  0  0  0  0  0  0  0  0  0  0  0
   33.8412  -16.1392   35.6210 C   0  0  0  0  0  0  0  0  0  0  0  0
   34.2849  -12.5459   37.2459 S   0  0  0  0  0  0  0  0  0  0  0  0
   34.0255  -11.1152   37.6147 C   0  0  0  0  0  0  0  0  0  0  0  0
   35.1499  -12.0953   36.1063 O   0  0  0  0  0  0  0  0  0  0  0  0
   33.4199  -12.9964   38.3856 O   0  0  0  0  0  0  0  0  0  0  0  0
   39.5397  -21.2932   36.0259 O   0  0  0  0  0  0  0  0  0  0  0  0
   40.7933  -21.0708   36.4576 C   0  0  0  0  0  0  0  0  0  0  0  0
   40.1825  -20.2278   37.5375 O   0  0  0  0  0  0  0  0  0  0  0  0
   42.2008  -21.4439   36.0976 N   0  0  0  0  0  0  0  0  0  0  0  0
   42.6155  -22.3198   34.9527 C   0  0  0  0  0  0  0  0  0  0  0  0
   44.1118  -22.4238   34.9668 C   0  0  0  0  0  0  0  0  0  0  0  0
   44.6220  -21.6122   36.1205 C   0  0  0  0  0  0  0  0  0  0  0  0
   43.4409  -21.0066   36.8194 C   0  0  0  0  0  0  0  0  0  0  0  0
   42.0916  -20.5409   37.3109 C   0  0  0  0  0  0  0  0  0  0  0  0
   40.9459  -21.0573   36.4917 C   0  0  0  0  0  0  0  0  0  0  0  0
   41.2079  -21.9467   35.3126 C   0  0  0  0  0  0  0  0  0  0  0  0
   39.6477  -21.5871   35.6384 O   0  0  0  0  0  0  0  0  0  0  0  0
   39.1763  -22.7604   37.3418 C   0  0  0  0  0  0  0  0  0  0  0  0
   39.1361  -22.9799   35.8585 C   0  0  0  0  0  0  0  0  0  0  0  0
   39.0959  -23.1994   34.3751 C   0  0  0  0  0  0  0  0  0  0  0  0
   38.6244  -24.3727   36.0785 C   0  0  0  0  0  0  0  0  0  0  0  0
 34 35  1  0  0  0
 35 36  1  0  0  0
 35 37  1  0  0  0
 35 33  1  0  0  0
 33 23  1  0  0  0
 23 24  2  0  0  0
 23 25  1  0  0  0
 25 26  1  0  0  0
 26 27  1  0  0  0
 27 28  1  0  0  0
 28 29  1  0  0  0
 29 30  1  0  0  0
 30 31  1  0  0  0
 31 22  1  0  0  0
 22  1  1  0  0  0
  1  2  2  0  0  0
  2  3  1  0  0  0
  3  4  2  0  0  0
  4  5  1  0  0  0
  5 10  1  0  0  0
 10 12  1  0  0  0
 12 13  2  0  0  0
 13 14  1  0  0  0
 14 15  2  0  0  0
 15 18  1  0  0  0
 18 19  1  0  0  0
 18 20  2  0  0  0
 18 21  2  0  0  0
 15 16  1  0  0  0
 16 17  2  0  0  0
  5  6  2  0  0  0
  6  7  1  0  0  0
  7  8  2  0  0  0
  7  9  1  0  0  0
 31 32  1  0  0  0
 29 25  1  0  0  0
  6  1  1  0  0  0
 32 26  1  0  0  0
 17 12  1  0  0  0
 10 11  1  0  0  0
M  CHG 1   7   1
M  CHG 1   9  -1
M  END
> <minimizedAffinity>
-6.62588

> <CNNscore>
0.0506904572

> <CNNaffinity>
5.1281075478

> <CNN_VS>
0.2599461079

> <CNNaffinity_variance>
0.2630238533

$$$$
[H]c1nc(OC2([H])C([H])([H])[C@@]3([H])N(C(=O)OC(C([H])([H])[H])(C([H])([H])[H])C([H])([H])[H])[C@]([H])(C2([H])[H])C([H])([H])C3([H])[H])c([N+](=O)[O-])c(N([H])c2c([H])c([H])c(S(=O)(=O)C([H])([H])[H])c([H])c2[H])n1


 37 40  0  0  0  0  0  0  0  0999 V2000
   38.1175  -20.7118   37.0938 C   0  0  0  0  0  0  0  0  0  0  0  0
   37.2402  -20.8986   38.2961 N   0  0  0  0  0  0  0  0  0  0  0  0
   36.0955  -19.9611   38.5422 C   0  0  0  0  0  0  0  0  0  0  0  0
   35.8280  -18.8367   37.5860 N   0  0  0  0  0  0  0  0  0  0  0  0
   36.7052  -18.6499   36.3837 C   0  0  0  0  0  0  0  0  0  0  0  0
   37.8500  -19.5874   36.1376 C   0  0  0  0  0  0  0  0  0  0  0  0
   38.7272  -19.4005   34.9353 N   0  0  0  0  0  0  0  0  0  0  0  0
   38.3013  -19.9453   33.6042 O   0  0  0  0  0  0  0  0  0  0  0  0
   40.0547  -18.7407   34.7063 O   0  0  0  0  0  0  0  0  0  0  0  0
   36.4377  -17.5255   35.4276 N   0  0  0  0  0  0  0  0  0  0  0  0
   36.7684  -17.6832   33.9730 H   0  0  0  0  0  0  0  0  0  0  0  0
   35.8395  -16.2434   35.9261 C   0  0  0  0  0  0  0  0  0  0  0  0
   34.3694  -15.9907   35.7690 C   0  0  0  0  0  0  0  0  0  0  0  0
   33.7713  -14.7086   36.2675 C   0  0  0  0  0  0  0  0  0  0  0  0
   34.6434  -13.6792   36.9231 C   0  0  0  0  0  0  0  0  0  0  0  0
   36.1136  -13.9319   37.0802 C   0  0  0  0  0  0  0  0  0  0  0  0
   36.7117  -15.2140   36.5817 C   0  0  0  0  0  0  0  0  0  0  0  0
   34.0453  -12.3972   37.4217 S   0  0  0  0  0  0  0  0  0  0  0  0
   33.4473  -11.1150   37.9202 C   0  0  0  0  0  0  0  0  0  0  0  0
   33.2957  -13.1566   38.4758 O   0  0  0  0  0  0  0  0  0  0  0  0
   34.7950  -11.6375   36.3675 O   0  0  0  0  0  0  0  0  0  0  0  0
   39.2623  -21.6492   36.8476 O   0  0  0  0  0  0  0  0  0  0  0  0
   39.1334  -22.6237   35.9305 C   0  0  0  0  0  0  0  0  0  0  0  0
   37.8249  -22.9526   36.5860 O   0  0  0  0  0  0  0  0  0  0  0  0
   39.8864  -23.1917   34.7641 N   0  0  0  0  0  0  0  0  0  0  0  0
   41.2123  -22.7119   34.2525 C   0  0  0  0  0  0  0  0  0  0  0  0
   41.5910  -23.5629   33.0768 C   0  0  0  0  0  0  0  0  0  0  0  0
   40.4992  -24.5687   32.8617 C   0  0  0  0  0  0  0  0  0  0  0  0
   39.4456  -24.3393   33.9046 C   0  0  0  0  0  0  0  0  0  0  0  0
   38.5681  -23.8860   35.0464 C   0  0  0  0  0  0  0  0  0  0  0  0
   39.1372  -22.7309   35.8158 C   0  0  0  0  0  0  0  0  0  0  0  0
   40.4593  -22.1439   35.4189 C   0  0  0  0  0  0  0  0  0  0  0  0
   39.7024  -21.4687   36.6999 O   0  0  0  0  0  0  0  0  0  0  0  0
   41.5605  -20.5884   37.2223 C   0  0  0  0  0  0  0  0  0  0  0  0
   40.7281  -21.7110   37.7672 C   0  0  0  0  0  0  0  0  0  0  0  0
   39.8958  -22.8336   38.3122 C   0  0  0  0  0  0  0  0  0  0  0  0
   41.7538  -21.9534   38.8346 C   0  0  0  0  0  0  0  0  0  0  0  0
 34 35  1  0  0  0
 35 36  1  0  0  0
 35 37  1  0  0  0
 35 33  1  0  0  0
 33 23  1  0  0  0
 23 24  2  0  0  0
 23 25  1  0  0  0
 25 26  1  0  0  0
 26 27  1  0  0  0
 27 28  1  0  0  0
 28 29  1  0  0  0
 29 30  1  0  0  0
 30 31  1  0  0  0
 31 22  1  0  0  0
 22  1  1  0  0  0
  1  2  2  0  0  0
  2  3  1  0  0  0
  3  4  2  0  0  0
  4  5  1  0  0  0
  5 10  1  0  0  0
 10 12  1  0  0  0
 12 13  2  0  0  0
 13 14  1  0  0  0
 14 15  2  0  0  0
 15 18  1  0  0  0
 18 19  1  0  0  0
 18 20  2  0  0  0
 18 21  2  0  0  0
 15 16  1  0  0  0
 16 17  2  0  0  0
  5  6  2  0  0  0
  6  7  1  0  0  0
  7  8  2  0  0  0
  7  9  1  0  0  0
 31 32  1  0  0  0
 29 25  1  0  0  0
  6  1  1  0  0  0
 32 26  1  0  0  0
 17 12  1  0  0  0
 10 11  1  0  0  0
M  CHG 1   7   1
M  CHG 1   9  -1
M  END
> <minimizedAffinity>
-6.73533

> <CNNscore>
0.0445745774

> <CNNaffinity>
4.9800667763

> <CNN_VS>
0.2219843715

> <CNNaffinity_variance>
0.3899371624

$$$$
[H]c1nc(OC2([H])C([H])([H])[C@@]3([H])N(C(=O)OC(C([H])([H])[H])(C([H])([H])[H])C([H])([H])[H])[C@]([H])(C2([H])[H])C([H])([H])C3([H])[H])c([N+](=O)[O-])c(N([H])c2c([H])c([H])c(S(=O)(=O)C([H])([H])[H])c([H])c2[H])n1


 37 40  0  0  0  0  0  0  0  0999 V2000
   37.3796  -18.7414   35.1982 C   0  0  0  0  0  0  0  0  0  0  0  0
   37.6880  -17.9857   33.9397 N   0  0  0  0  0  0  0  0  0  0  0  0
   38.8501  -18.3957   33.0844 C   0  0  0  0  0  0  0  0  0  0  0  0
   39.7037  -19.5614   33.4876 N   0  0  0  0  0  0  0  0  0  0  0  0
   39.3952  -20.3171   34.7461 C   0  0  0  0  0  0  0  0  0  0  0  0
   38.2332  -19.9071   35.6014 C   0  0  0  0  0  0  0  0  0  0  0  0
   37.9247  -20.6627   36.8599 N   0  0  0  0  0  0  0  0  0  0  0  0
   37.0192  -21.8577   36.8143 O   0  0  0  0  0  0  0  0  0  0  0  0
   38.3344  -20.5091   38.2947 O   0  0  0  0  0  0  0  0  0  0  0  0
   40.2489  -21.4828   35.1493 N   0  0  0  0  0  0  0  0  0  0  0  0
   40.2278  -22.7440   34.3376 H   0  0  0  0  0  0  0  0  0  0  0  0
   41.1235  -21.3871   36.3642 C   0  0  0  0  0  0  0  0  0  0  0  0
   41.3737  -22.6032   37.2059 C   0  0  0  0  0  0  0  0  0  0  0  0
   42.2483  -22.5074   38.4207 C   0  0  0  0  0  0  0  0  0  0  0  0
   42.8728  -21.1956   38.7938 C   0  0  0  0  0  0  0  0  0  0  0  0
   42.6226  -19.9795   37.9521 C   0  0  0  0  0  0  0  0  0  0  0  0
   41.7480  -20.0753   36.7373 C   0  0  0  0  0  0  0  0  0  0  0  0
   43.7474  -21.0999   40.0086 S   0  0  0  0  0  0  0  0  0  0  0  0
   44.6221  -21.0042   41.2235 C   0  0  0  0  0  0  0  0  0  0  0  0
   44.5141  -19.9808   39.3685 O   0  0  0  0  0  0  0  0  0  0  0  0
   42.9807  -22.2190   40.6489 O   0  0  0  0  0  0  0  0  0  0  0  0
   36.2176  -18.3314   36.0536 O   0  0  0  0  0  0  0  0  0  0  0  0
   36.2061  -17.1108   36.6168 C   0  0  0  0  0  0  0  0  0  0  0  0
   37.4845  -17.5039   37.2959 O   0  0  0  0  0  0  0  0  0  0  0  0
   35.3600  -15.8722   36.6249 N   0  0  0  0  0  0  0  0  0  0  0  0
   34.0860  -15.6697   35.8595 C   0  0  0  0  0  0  0  0  0  0  0  0
   33.5779  -14.2910   36.1614 C   0  0  0  0  0  0  0  0  0  0  0  0
   34.5380  -13.6415   37.1134 C   0  0  0  0  0  0  0  0  0  0  0  0
   35.6394  -14.6187   37.3998 C   0  0  0  0  0  0  0  0  0  0  0  0
   36.5950  -15.7832   37.5003 C   0  0  0  0  0  0  0  0  0  0  0  0
   36.1865  -16.9650   36.6717 C   0  0  0  0  0  0  0  0  0  0  0  0
   34.9321  -16.9083   35.8514 C   0  0  0  0  0  0  0  0  0  0  0  0
   35.7977  -18.2926   35.7883 O   0  0  0  0  0  0  0  0  0  0  0  0
   34.1165  -19.1960   34.8623 C   0  0  0  0  0  0  0  0  0  0  0  0
   34.6834  -19.1839   36.2510 C   0  0  0  0  0  0  0  0  0  0  0  0
   35.2504  -19.1718   37.6396 C   0  0  0  0  0  0  0  0  0  0  0  0
   33.5692  -20.0751   36.7137 C   0  0  0  0  0  0  0  0  0  0  0  0
 34 35  1  0  0  0
 35 36  1  0  0  0
 35 37  1  0  0  0
 35 33  1  0  0  0
 33 23  1  0  0  0
 23 24  2  0  0  0
 23 25  1  0  0  0
 25 26  1  0  0  0
 26 27  1  0  0  0
 27 28  1  0  0  0
 28 29  1  0  0  0
 29 30  1  0  0  0
 30 31  1  0  0  0
 31 22  1  0  0  0
 22  1  1  0  0  0
  1  2  2  0  0  0
  2  3  1  0  0  0
  3  4  2  0  0  0
  4  5  1  0  0  0
  5 10  1  0  0  0
 10 12  1  0  0  0
 12 13  2  0  0  0
 13 14  1  0  0  0
 14 15  2  0  0  0
 15 18  1  0  0  0
 18 19  1  0  0  0
 18 20  2  0  0  0
 18 21  2  0  0  0
 15 16  1  0  0  0
 16 17  2  0  0  0
  5  6  2  0  0  0
  6  7  1  0  0  0
  7  8  2  0  0  0
  7  9  1  0  0  0
 31 32  1  0  0  0
 29 25  1  0  0  0
  6  1  1  0  0  0
 32 26  1  0  0  0
 17 12  1  0  0  0
 10 11  1  0  0  0
M  CHG 1   7   1
M  CHG 1   9  -1
M  END
> <minimizedAffinity>
-6.53202

> <CNNscore>
0.0357976519

> <CNNaffinity>
5.1869916916

> <CNN_VS>
0.1856821179

> <CNNaffinity_variance>
0.2566758394

$$$$
[H]c1nc(OC2([H])C([H])([H])[C@@]3([H])N(C(=O)OC(C([H])([H])[H])(C([H])([H])[H])C([H])([H])[H])[C@]([H])(C2([H])[H])C([H])([H])C3([H])[H])c([N+](=O)[O-])c(N([H])c2c([H])c([H])c(S(=O)(=O)C([H])([H])[H])c([H])c2[H])n1


 37 40  0  0  0  0  0  0  0  0999 V2000
   39.2701  -19.9459   34.7688 C   0  0  0  0  0  0  0  0  0  0  0  0
   39.4723  -19.1548   33.5105 N   0  0  0  0  0  0  0  0  0  0  0  0
   38.4827  -18.0964   33.1228 C   0  0  0  0  0  0  0  0  0  0  0  0
   37.2907  -17.8291   33.9934 N   0  0  0  0  0  0  0  0  0  0  0  0
   37.0885  -18.6201   35.2517 C   0  0  0  0  0  0  0  0  0  0  0  0
   38.0782  -19.6785   35.6394 C   0  0  0  0  0  0  0  0  0  0  0  0
   37.8759  -20.4696   36.8977 N   0  0  0  0  0  0  0  0  0  0  0  0
   36.9732  -21.6676   36.8935 O   0  0  0  0  0  0  0  0  0  0  0  0
   38.4012  -20.3527   38.2979 O   0  0  0  0  0  0  0  0  0  0  0  0
   35.8966  -18.3528   36.1222 N   0  0  0  0  0  0  0  0  0  0  0  0
   35.1138  -19.4974   36.6943 H   0  0  0  0  0  0  0  0  0  0  0  0
   35.4874  -16.9409   36.4207 C   0  0  0  0  0  0  0  0  0  0  0  0
   34.2455  -16.3727   35.8003 C   0  0  0  0  0  0  0  0  0  0  0  0
   33.8365  -14.9608   36.0988 C   0  0  0  0  0  0  0  0  0  0  0  0
   34.6694  -14.1170   37.0176 C   0  0  0  0  0  0  0  0  0  0  0  0
   35.9113  -14.6851   37.6380 C   0  0  0  0  0  0  0  0  0  0  0  0
   36.3203  -16.0970   37.3395 C   0  0  0  0  0  0  0  0  0  0  0  0
   34.2603  -12.7051   37.3161 S   0  0  0  0  0  0  0  0  0  0  0  0
   33.8513  -11.2930   37.6145 C   0  0  0  0  0  0  0  0  0  0  0  0
   33.3835  -13.1945   38.4304 O   0  0  0  0  0  0  0  0  0  0  0  0
   35.1371  -12.2155   36.2018 O   0  0  0  0  0  0  0  0  0  0  0  0
   40.2597  -21.0043   35.1566 O   0  0  0  0  0  0  0  0  0  0  0  0
   41.1767  -20.7367   36.1026 C   0  0  0  0  0  0  0  0  0  0  0  0
   41.4205  -19.4438   35.3821 O   0  0  0  0  0  0  0  0  0  0  0  0
   41.7541  -21.3679   37.3347 N   0  0  0  0  0  0  0  0  0  0  0  0
   41.3682  -22.6998   37.9066 C   0  0  0  0  0  0  0  0  0  0  0  0
   42.1945  -22.9331   39.1366 C   0  0  0  0  0  0  0  0  0  0  0  0
   43.0911  -21.7455   39.3248 C   0  0  0  0  0  0  0  0  0  0  0  0
   42.8190  -20.7781   38.2112 C   0  0  0  0  0  0  0  0  0  0  0  0
   42.3438  -20.0114   37.0005 C   0  0  0  0  0  0  0  0  0  0  0  0
   41.2785  -20.7244   36.2215 C   0  0  0  0  0  0  0  0  0  0  0  0
   40.7907  -22.0685   36.6745 C   0  0  0  0  0  0  0  0  0  0  0  0
   40.1114  -21.4496   35.3235 O   0  0  0  0  0  0  0  0  0  0  0  0
   41.5664  -21.6421   33.7919 C   0  0  0  0  0  0  0  0  0  0  0  0
   40.4884  -22.5247   34.3478 C   0  0  0  0  0  0  0  0  0  0  0  0
   39.4104  -23.4072   34.9037 C   0  0  0  0  0  0  0  0  0  0  0  0
   40.8654  -23.5998   33.3720 C   0  0  0  0  0  0  0  0  0  0  0  0
 34 35  1  0  0  0
 35 36  1  0  0  0
 35 37  1  0  0  0
 35 33  1  0  0  0
 33 23  1  0  0  0
 23 24  2  0  0  0
 23 25  1  0  0  0
 25 26  1  0  0  0
 26 27  1  0  0  0
 27 28  1  0  0  0
 28 29  1  0  0  0
 29 30  1  0  0  0
 30 31  1  0  0  0
 31 22  1  0  0  0
 22  1  1  0  0  0
  1  2  2  0  0  0
  2  3  1  0  0  0
  3  4  2  0  0  0
  4  5  1  0  0  0
  5 10  1  0  0  0
 10 12  1  0  0  0
 12 13  2  0  0  0
 13 14  1  0  0  0
 14 15  2  0  0  0
 15 18  1  0  0  0
 18 19  1  0  0  0
 18 20  2  0  0  0
 18 21  2  0  0  0
 15 16  1  0  0  0
 16 17  2  0  0  0
  5  6  2  0  0  0
  6  7  1  0  0  0
  7  8  2  0  0  0
  7  9  1  0  0  0
 31 32  1  0  0  0
 29 25  1  0  0  0
  6  1  1  0  0  0
 32 26  1  0  0  0
 17 12  1  0  0  0
 10 11  1  0  0  0
M  CHG 1   7   1
M  CHG 1   9  -1
M  END
> <minimizedAffinity>
-6.93840

> <CNNscore>
0.0294388346

> <CNNaffinity>
5.1709046364

> <CNN_VS>
0.1522254050

> <CNNaffinity_variance>
0.2792917788

$$$$
[H]c1nc(OC2([H])C([H])([H])[C@@]3([H])N(C(=O)OC(C([H])([H])[H])(C([H])([H])[H])C([H])([H])[H])[C@]([H])(C2([H])[H])C([H])([H])C3([H])[H])c([N+](=O)[O-])c(N([H])c2c([H])c([H])c(S(=O)(=O)C([H])([H])[H])c([H])c2[H])n1


 37 40  0  0  0  0  0  0  0  0999 V2000
   39.1116  -20.4256   35.0004 C   0  0  0  0  0  0  0  0  0  0  0  0
   39.4646  -19.6050   33.7955 N   0  0  0  0  0  0  0  0  0  0  0  0
   38.6090  -18.4357   33.4076 C   0  0  0  0  0  0  0  0  0  0  0  0
   37.4003  -18.0869   34.2246 N   0  0  0  0  0  0  0  0  0  0  0  0
   37.0473  -18.9076   35.4296 C   0  0  0  0  0  0  0  0  0  0  0  0
   37.9030  -20.0769   35.8175 C   0  0  0  0  0  0  0  0  0  0  0  0
   37.5500  -20.8975   37.0225 N   0  0  0  0  0  0  0  0  0  0  0  0
   38.1209  -20.5442   38.3639 O   0  0  0  0  0  0  0  0  0  0  0  0
   36.6841  -22.1018   37.2459 O   0  0  0  0  0  0  0  0  0  0  0  0
   35.8387  -18.5588   36.2467 N   0  0  0  0  0  0  0  0  0  0  0  0
   34.9869  -19.6479   36.8284 H   0  0  0  0  0  0  0  0  0  0  0  0
   35.4818  -17.1210   36.4819 C   0  0  0  0  0  0  0  0  0  0  0  0
   36.3418  -16.2702   37.3688 C   0  0  0  0  0  0  0  0  0  0  0  0
   35.9849  -14.8324   37.6040 C   0  0  0  0  0  0  0  0  0  0  0  0
   34.7680  -14.2454   36.9523 C   0  0  0  0  0  0  0  0  0  0  0  0
   33.9080  -15.0962   36.0655 C   0  0  0  0  0  0  0  0  0  0  0  0
   34.2649  -16.5340   35.8303 C   0  0  0  0  0  0  0  0  0  0  0  0
   34.4111  -12.8076   37.1875 S   0  0  0  0  0  0  0  0  0  0  0  0
   34.0542  -11.3697   37.4226 C   0  0  0  0  0  0  0  0  0  0  0  0
   33.5405  -13.2122   38.3401 O   0  0  0  0  0  0  0  0  0  0  0  0
   35.2816  -12.4030   36.0349 O   0  0  0  0  0  0  0  0  0  0  0  0
   39.9672  -21.5950   35.3884 O   0  0  0  0  0  0  0  0  0  0  0  0
   40.1237  -22.6201   34.5330 C   0  0  0  0  0  0  0  0  0  0  0  0
   38.7073  -22.9952   34.8543 O   0  0  0  0  0  0  0  0  0  0  0  0
   41.1767  -23.1987   33.6350 N   0  0  0  0  0  0  0  0  0  0  0  0
   42.5659  -22.6650   33.4473 C   0  0  0  0  0  0  0  0  0  0  0  0
   43.2732  -23.5491   32.4633 C   0  0  0  0  0  0  0  0  0  0  0  0
   42.3211  -24.6292   32.0428 C   0  0  0  0  0  0  0  0  0  0  0  0
   41.0254  -24.4126   32.7669 C   0  0  0  0  0  0  0  0  0  0  0  0
   39.8638  -23.9572   33.6170 C   0  0  0  0  0  0  0  0  0  0  0  0
   40.1619  -22.7325   34.4302 C   0  0  0  0  0  0  0  0  0  0  0  0
   41.5129  -22.0864   34.3454 C   0  0  0  0  0  0  0  0  0  0  0  0
   40.4217  -21.3955   35.3462 O   0  0  0  0  0  0  0  0  0  0  0  0
   40.3094  -22.6945   37.0195 C   0  0  0  0  0  0  0  0  0  0  0  0
   41.1628  -21.5193   36.6445 C   0  0  0  0  0  0  0  0  0  0  0  0
   42.0161  -20.3440   36.2694 C   0  0  0  0  0  0  0  0  0  0  0  0
   41.9038  -21.6430   37.9428 C   0  0  0  0  0  0  0  0  0  0  0  0
 34 35  1  0  0  0
 35 36  1  0  0  0
 35 37  1  0  0  0
 35 33  1  0  0  0
 33 23  1  0  0  0
 23 24  2  0  0  0
 23 25  1  0  0  0
 25 26  1  0  0  0
 26 27  1  0  0  0
 27 28  1  0  0  0
 28 29  1  0  0  0
 29 30  1  0  0  0
 30 31  1  0  0  0
 31 22  1  0  0  0
 22  1  1  0  0  0
  1  2  2  0  0  0
  2  3  1  0  0  0
  3  4  2  0  0  0
  4  5  1  0  0  0
  5 10  1  0  0  0
 10 12  1  0  0  0
 12 13  2  0  0  0
 13 14  1  0  0  0
 14 15  2  0  0  0
 15 18  1  0  0  0
 18 19  1  0  0  0
 18 20  2  0  0  0
 18 21  2  0  0  0
 15 16  1  0  0  0
 16 17  2  0  0  0
  5  6  2  0  0  0
  6  7  1  0  0  0
  7  8  2  0  0  0
  7  9  1  0  0  0
 31 32  1  0  0  0
 29 25  1  0  0  0
  6  1  1  0  0  0
 32 26  1  0  0  0
 17 12  1  0  0  0
 10 11  1  0  0  0
M  CHG 1   7   1
M  CHG 1   9  -1
M  END
> <minimizedAffinity>
-7.00389

> <CNNscore>
0.0267345328

> <CNNaffinity>
4.9592585564

> <CNN_VS>
0.1325834543

> <CNNaffinity_variance>
0.3654010892

$$$$
[H]c1c([H])c(N([H])c2nc(N3C([H])([H])C([H])([H])C([H])([H])C3([H])[H])c3c([H])c([H])c([H])c([H])c3n2)c([H])c([H])c1OC([H])([H])[H]


 25 28  0  0  0  0  0  0  0  0999 V2000
   33.7571  -17.3874   35.0660 C   0  0  0  0  0  0  0  0  0  0  0  0
   34.9012  -18.0756   35.1004 N   0  0  0  0  0  0  0  0  0  0  0  0
   36.0244  -17.6369   35.7048 C   0  0  0  0  0  0  0  0  0  0  0  0
   35.9860  -16.4067   36.3206 C   0  0  0  0  0  0  0  0  0  0  0  0
   37.0863  -15.8843   36.9473 C   0  0  0  0  0  0  0  0  0  0  0  0
   36.9825  -14.6377   37.5405 C   0  0  0  0  0  0  0  0  0  0  0  0
   35.8249  -13.9061   37.5257 C   0  0  0  0  0  0  0  0  0  0  0  0
   34.7173  -14.4125   36.9034 C   0  0  0  0  0  0  0  0  0  0  0  0
   34.7999  -15.6660   36.2992 C   0  0  0  0  0  0  0  0  0  0  0  0
   33.7495  -16.2015   35.6707 N   0  0  0  0  0  0  0  0  0  0  0  0
   37.1897  -18.4610   35.7164 N   0  0  0  0  0  0  0  0  0  0  0  0
   38.1264  -18.6508   34.6555 C   0  0  0  0  0  0  0  0  0  0  0  0
   39.4194  -19.1287   35.3207 C   0  0  0  0  0  0  0  0  0  0  0  0
   39.1353  -18.9966   36.7794 C   0  0  0  0  0  0  0  0  0  0  0  0
   37.6246  -19.2538   36.8416 C   0  0  0  0  0  0  0  0  0  0  0  0
   32.6366  -17.9194   34.3941 N   0  0  0  0  0  0  0  0  0  0  0  0
   32.2372  -17.2997   33.6255 H   0  0  0  0  0  0  0  0  0  0  0  0
   30.5003  -21.5208   35.1614 C   0  0  0  0  0  0  0  0  0  0  0  0
   31.7858  -21.5664   34.6851 C   0  0  0  0  0  0  0  0  0  0  0  0
   32.5244  -20.4032   34.4099 C   0  0  0  0  0  0  0  0  0  0  0  0
   31.9937  -19.1549   34.6057 C   0  0  0  0  0  0  0  0  0  0  0  0
   30.6765  -19.1294   35.0934 C   0  0  0  0  0  0  0  0  0  0  0  0
   29.9604  -20.2722   35.3599 C   0  0  0  0  0  0  0  0  0  0  0  0
   28.4182  -22.6106   35.7912 C   0  0  0  0  0  0  0  0  0  0  0  0
   29.7839  -22.6771   35.4285 O   0  0  0  0  0  0  0  0  0  0  0  0
 24 25  1  0  0  0
 25 18  1  0  0  0
 18 19  2  0  0  0
 19 20  1  0  0  0
 20 21  2  0  0  0
 21 16  1  0  0  0
 16  1  1  0  0  0
  1  2  2  0  0  0
  2  3  1  0  0  0
  3 11  1  0  0  0
 11 12  1  0  0  0
 12 13  1  0  0  0
 13 14  1  0  0  0
 14 15  1  0  0  0
  3  4  2  0  0  0
  4  5  1  0  0  0
  5  6  2  0  0  0
  6  7  1  0  0  0
  7  8  2  0  0  0
  8  9  1  0  0  0
  9 10  2  0  0  0
 21 22  1  0  0  0
 22 23  2  0  0  0
 23 18  1  0  0  0
 10  1  1  0  0  0
 15 11  1  0  0  0
  9  4  1  0  0  0
 16 17  1  0  0  0
M  END
> <minimizedAffinity>
-7.40061

> <CNNscore>
0.7511388063

> <CNNaffinity>
5.3120794296

> <CNN_VS>
3.9901089668

> <CNNaffinity_variance>
0.3066454828

$$$$
[H]c1c([H])c(N([H])c2nc(N3C([H])([H])C([H])([H])C([H])([H])C3([H])[H])c3c([H])c([H])c([H])c([H])c3n2)c([H])c([H])c1OC([H])([H])[H]


 25 28  0  0  0  0  0  0  0  0999 V2000
   32.9094  -18.2407   35.5193 C   0  0  0  0  0  0  0  0  0  0  0  0
   33.6671  -19.0176   36.2977 N   0  0  0  0  0  0  0  0  0  0  0  0
   33.2730  -20.2160   36.7750 C   0  0  0  0  0  0  0  0  0  0  0  0
   32.0149  -20.6610   36.4389 C   0  0  0  0  0  0  0  0  0  0  0  0
   31.5348  -21.8616   36.8911 C   0  0  0  0  0  0  0  0  0  0  0  0
   30.2572  -22.2466   36.5223 C   0  0  0  0  0  0  0  0  0  0  0  0
   29.4543  -21.4757   35.7243 C   0  0  0  0  0  0  0  0  0  0  0  0
   29.9177  -20.2738   35.2651 C   0  0  0  0  0  0  0  0  0  0  0  0
   31.2014  -19.8665   35.6247 C   0  0  0  0  0  0  0  0  0  0  0  0
   31.6978  -18.6974   35.2100 N   0  0  0  0  0  0  0  0  0  0  0  0
   34.1688  -20.9889   37.5735 N   0  0  0  0  0  0  0  0  0  0  0  0
   35.2447  -21.8103   37.1192 C   0  0  0  0  0  0  0  0  0  0  0  0
   36.1984  -21.9451   38.3087 C   0  0  0  0  0  0  0  0  0  0  0  0
   35.6345  -21.0052   39.3210 C   0  0  0  0  0  0  0  0  0  0  0  0
   34.1326  -21.0595   39.0149 C   0  0  0  0  0  0  0  0  0  0  0  0
   33.3998  -16.9927   35.0810 N   0  0  0  0  0  0  0  0  0  0  0  0
   33.1091  -16.7168   34.0943 H   0  0  0  0  0  0  0  0  0  0  0  0
   36.0276  -14.4145   37.2188 C   0  0  0  0  0  0  0  0  0  0  0  0
   34.7331  -14.0339   36.9722 C   0  0  0  0  0  0  0  0  0  0  0  0
   33.8347  -14.8491   36.2634 C   0  0  0  0  0  0  0  0  0  0  0  0
   34.2092  -16.0754   35.7797 C   0  0  0  0  0  0  0  0  0  0  0  0
   35.5384  -16.4468   36.0421 C   0  0  0  0  0  0  0  0  0  0  0  0
   36.4114  -15.6431   36.7362 C   0  0  0  0  0  0  0  0  0  0  0  0
   38.2311  -13.4141   37.4702 C   0  0  0  0  0  0  0  0  0  0  0  0
   36.9027  -13.5994   37.9197 O   0  0  0  0  0  0  0  0  0  0  0  0
 24 25  1  0  0  0
 25 18  1  0  0  0
 18 19  2  0  0  0
 19 20  1  0  0  0
 20 21  2  0  0  0
 21 16  1  0  0  0
 16  1  1  0  0  0
  1  2  2  0  0  0
  2  3  1  0  0  0
  3 11  1  0  0  0
 11 12  1  0  0  0
 12 13  1  0  0  0
 13 14  1  0  0  0
 14 15  1  0  0  0
  3  4  2  0  0  0
  4  5  1  0  0  0
  5  6  2  0  0  0
  6  7  1  0  0  0
  7  8  2  0  0  0
  8  9  1  0  0  0
  9 10  2  0  0  0
 21 22  1  0  0  0
 22 23  2  0  0  0
 23 18  1  0  0  0
 10  1  1  0  0  0
 15 11  1  0  0  0
  9  4  1  0  0  0
 16 17  1  0  0  0
M  END
> <minimizedAffinity>
-6.57832

> <CNNscore>
0.7147464752

> <CNNaffinity>
5.0697593689

> <CNN_VS>
3.6235926151

> <CNNaffinity_variance>
0.3212470114

$$$$
[H]c1c([H])c(N([H])c2nc(N3C([H])([H])C([H])([H])C([H])([H])C3([H])[H])c3c([H])c([H])c([H])c([H])c3n2)c([H])c([H])c1OC([H])([H])[H]


 25 28  0  0  0  0  0  0  0  0999 V2000
   34.2689  -13.1005   37.8310 C   0  0  0  0  0  0  0  0  0  0  0  0
   34.4191  -11.8488   37.3902 N   0  0  0  0  0  0  0  0  0  0  0  0
   33.4228  -10.9402   37.3531 C   0  0  0  0  0  0  0  0  0  0  0  0
   32.1791  -11.3297   37.7953 C   0  0  0  0  0  0  0  0  0  0  0  0
   31.1119  -10.4712   37.7806 C   0  0  0  0  0  0  0  0  0  0  0  0
   29.8858  -10.9289   38.2321 C   0  0  0  0  0  0  0  0  0  0  0  0
   29.6970  -12.2049   38.6923 C   0  0  0  0  0  0  0  0  0  0  0  0
   30.7518  -13.0753   38.7128 C   0  0  0  0  0  0  0  0  0  0  0  0
   31.9953  -12.6351   38.2623 C   0  0  0  0  0  0  0  0  0  0  0  0
   33.0553  -13.4485   38.2533 N   0  0  0  0  0  0  0  0  0  0  0  0
   33.6904   -9.6151   36.8952 N   0  0  0  0  0  0  0  0  0  0  0  0
   34.9022   -9.1260   36.3198 C   0  0  0  0  0  0  0  0  0  0  0  0
   34.5107   -7.8857   35.5129 C   0  0  0  0  0  0  0  0  0  0  0  0
   33.0197   -7.8845   35.5695 C   0  0  0  0  0  0  0  0  0  0  0  0
   32.7450   -8.5249   36.9357 C   0  0  0  0  0  0  0  0  0  0  0  0
   35.3657  -13.9874   37.8165 N   0  0  0  0  0  0  0  0  0  0  0  0
   36.2051  -13.6739   38.3921 H   0  0  0  0  0  0  0  0  0  0  0  0
   35.4733  -17.6887   35.7161 C   0  0  0  0  0  0  0  0  0  0  0  0
   36.4677  -17.3677   36.6046 C   0  0  0  0  0  0  0  0  0  0  0  0
   36.4767  -16.1540   37.3125 C   0  0  0  0  0  0  0  0  0  0  0  0
   35.4842  -15.2230   37.1501 C   0  0  0  0  0  0  0  0  0  0  0  0
   34.4756  -15.5701   36.2359 C   0  0  0  0  0  0  0  0  0  0  0  0
   34.4742  -16.7596   35.5470 C   0  0  0  0  0  0  0  0  0  0  0  0
   34.6297  -19.0824   33.9091 C   0  0  0  0  0  0  0  0  0  0  0  0
   35.4778  -18.8903   35.0249 O   0  0  0  0  0  0  0  0  0  0  0  0
 24 25  1  0  0  0
 25 18  1  0  0  0
 18 19  2  0  0  0
 19 20  1  0  0  0
 20 21  2  0  0  0
 21 16  1  0  0  0
 16  1  1  0  0  0
  1  2  2  0  0  0
  2  3  1  0  0  0
  3 11  1  0  0  0
 11 12  1  0  0  0
 12 13  1  0  0  0
 13 14  1  0  0  0
 14 15  1  0  0  0
  3  4  2  0  0  0
  4  5  1  0  0  0
  5  6  2  0  0  0
  6  7  1  0  0  0
  7  8  2  0  0  0
  8  9  1  0  0  0
  9 10  2  0  0  0
 21 22  1  0  0  0
 22 23  2  0  0  0
 23 18  1  0  0  0
 10  1  1  0  0  0
 15 11  1  0  0  0
  9  4  1  0  0  0
 16 17  1  0  0  0
M  END
> <minimizedAffinity>
-7.33272

> <CNNscore>
0.5453315973

> <CNNaffinity>
6.2879109383

> <CNN_VS>
3.4289965630

> <CNNaffinity_variance>
0.1548765749

$$$$
[H]c1c([H])c(N([H])c2nc(N3C([H])([H])C([H])([H])C([H])([H])C3([H])[H])c3c([H])c([H])c([H])c([H])c3n2)c([H])c([H])c1OC([H])([H])[H]


 25 28  0  0  0  0  0  0  0  0999 V2000
   33.2969  -18.1883   35.0117 C   0  0  0  0  0  0  0  0  0  0  0  0
   33.4695  -16.9042   35.3361 N   0  0  0  0  0  0  0  0  0  0  0  0
   34.5930  -16.4159   35.9006 C   0  0  0  0  0  0  0  0  0  0  0  0
   35.6197  -17.2956   36.1571 C   0  0  0  0  0  0  0  0  0  0  0  0
   36.7893  -16.8824   36.7382 C   0  0  0  0  0  0  0  0  0  0  0  0
   37.7795  -17.8202   36.9762 C   0  0  0  0  0  0  0  0  0  0  0  0
   37.6367  -19.1438   36.6547 C   0  0  0  0  0  0  0  0  0  0  0  0
   36.4749  -19.5734   36.0749 C   0  0  0  0  0  0  0  0  0  0  0  0
   35.4645  -18.6457   35.8266 C   0  0  0  0  0  0  0  0  0  0  0  0
   34.3073  -19.0155   35.2705 N   0  0  0  0  0  0  0  0  0  0  0  0
   34.6950  -15.0200   36.1805 N   0  0  0  0  0  0  0  0  0  0  0  0
   33.7508  -14.2050   36.8754 C   0  0  0  0  0  0  0  0  0  0  0  0
   34.5397  -12.9990   37.3911 C   0  0  0  0  0  0  0  0  0  0  0  0
   35.9563  -13.3418   37.0722 C   0  0  0  0  0  0  0  0  0  0  0  0
   35.8089  -14.1846   35.7994 C   0  0  0  0  0  0  0  0  0  0  0  0
   32.0788  -18.6114   34.4399 N   0  0  0  0  0  0  0  0  0  0  0  0
   31.7696  -18.0610   33.5822 H   0  0  0  0  0  0  0  0  0  0  0  0
   29.7114  -21.9580   35.5881 C   0  0  0  0  0  0  0  0  0  0  0  0
   29.1881  -20.6911   35.6349 C   0  0  0  0  0  0  0  0  0  0  0  0
   29.9360  -19.5578   35.2736 C   0  0  0  0  0  0  0  0  0  0  0  0
   31.2360  -19.6622   34.8524 C   0  0  0  0  0  0  0  0  0  0  0  0
   31.7536  -20.9676   34.8118 C   0  0  0  0  0  0  0  0  0  0  0  0
   31.0152  -22.0712   35.1672 C   0  0  0  0  0  0  0  0  0  0  0  0
   29.3834  -23.9114   37.0009 C   0  0  0  0  0  0  0  0  0  0  0  0
   28.9612  -23.0668   35.9476 O   0  0  0  0  0  0  0  0  0  0  0  0
 24 25  1  0  0  0
 25 18  1  0  0  0
 18 19  2  0  0  0
 19 20  1  0  0  0
 20 21  2  0  0  0
 21 16  1  0  0  0
 16  1  1  0  0  0
  1  2  2  0  0  0
  2  3  1  0  0  0
  3 11  1  0  0  0
 11 12  1  0  0  0
 12 13  1  0  0  0
 13 14  1  0  0  0
 14 15  1  0  0  0
  3  4  2  0  0  0
  4  5  1  0  0  0
  5  6  2  0  0  0
  6  7  1  0  0  0
  7  8  2  0  0  0
  8  9  1  0  0  0
  9 10  2  0  0  0
 21 22  1  0  0  0
 22 23  2  0  0  0
 23 18  1  0  0  0
 10  1  1  0  0  0
 15 11  1  0  0  0
  9  4  1  0  0  0
 16 17  1  0  0  0
M  END
> <minimizedAffinity>
-6.80815

> <CNNscore>
0.5176027417

> <CNNaffinity>
5.0495581627

> <CNN_VS>
2.6136651039

> <CNNaffinity_variance>
0.4808501601

$$$$
[H]c1c([H])c(N([H])c2nc(N3C([H])([H])C([H])([H])C([H])([H])C3([H])[H])c3c([H])c([H])c([H])c([H])c3n2)c([H])c([H])c1OC([H])([H])[H]


 25 28  0  0  0  0  0  0  0  0999 V2000
   34.1264  -16.3371   35.9415 C   0  0  0  0  0  0  0  0  0  0  0  0
   33.6431  -17.5281   35.5786 N   0  0  0  0  0  0  0  0  0  0  0  0
   34.3695  -18.6647   35.5749 C   0  0  0  0  0  0  0  0  0  0  0  0
   35.6862  -18.5889   35.9678 C   0  0  0  0  0  0  0  0  0  0  0  0
   36.4947  -19.6945   35.9819 C   0  0  0  0  0  0  0  0  0  0  0  0
   37.8124  -19.5478   36.3805 C   0  0  0  0  0  0  0  0  0  0  0  0
   38.3399  -18.3424   36.7606 C   0  0  0  0  0  0  0  0  0  0  0  0
   37.5467  -17.2283   36.7512 C   0  0  0  0  0  0  0  0  0  0  0  0
   36.2167  -17.3535   36.3530 C   0  0  0  0  0  0  0  0  0  0  0  0
   35.4027  -16.2946   36.3176 N   0  0  0  0  0  0  0  0  0  0  0  0
   33.7533  -19.8969   35.2015 N   0  0  0  0  0  0  0  0  0  0  0  0
   33.4200  -20.9918   36.0553 C   0  0  0  0  0  0  0  0  0  0  0  0
   32.3227  -21.7709   35.3262 C   0  0  0  0  0  0  0  0  0  0  0  0
   32.0012  -20.9105   34.1505 C   0  0  0  0  0  0  0  0  0  0  0  0
   33.3495  -20.2403   33.8589 C   0  0  0  0  0  0  0  0  0  0  0  0
   33.2955  -15.1980   35.8970 N   0  0  0  0  0  0  0  0  0  0  0  0
   32.3264  -15.3640   35.4877 H   0  0  0  0  0  0  0  0  0  0  0  0
   33.9031  -11.2114   37.2610 C   0  0  0  0  0  0  0  0  0  0  0  0
   34.8904  -11.8640   36.5678 C   0  0  0  0  0  0  0  0  0  0  0  0
   34.7361  -13.1823   36.1069 C   0  0  0  0  0  0  0  0  0  0  0  0
   33.5820  -13.8876   36.3278 C   0  0  0  0  0  0  0  0  0  0  0  0
   32.5834  -13.2022   37.0394 C   0  0  0  0  0  0  0  0  0  0  0  0
   32.7424  -11.9124   37.4873 C   0  0  0  0  0  0  0  0  0  0  0  0
   33.2387   -8.8711   37.2296 C   0  0  0  0  0  0  0  0  0  0  0  0
   34.0697   -9.9104   37.7095 O   0  0  0  0  0  0  0  0  0  0  0  0
 24 25  1  0  0  0
 25 18  1  0  0  0
 18 19  2  0  0  0
 19 20  1  0  0  0
 20 21  2  0  0  0
 21 16  1  0  0  0
 16  1  1  0  0  0
  1  2  2  0  0  0
  2  3  1  0  0  0
  3 11  1  0  0  0
 11 12  1  0  0  0
 12 13  1  0  0  0
 13 14  1  0  0  0
 14 15  1  0  0  0
  3  4  2  0  0  0
  4  5  1  0  0  0
  5  6  2  0  0  0
  6  7  1  0  0  0
  7  8  2  0  0  0
  8  9  1  0  0  0
  9 10  2  0  0  0
 21 22  1  0  0  0
 22 23  2  0  0  0
 23 18  1  0  0  0
 10  1  1  0  0  0
 15 11  1  0  0  0
  9  4  1  0  0  0
 16 17  1  0  0  0
M  END
> <minimizedAffinity>
-6.46421

> <CNNscore>
0.4081972837

> <CNNaffinity>
5.1681847572

> <CNN_VS>
2.1096389294

> <CNNaffinity_variance>
0.1124535799

$$$$
[H]c1c([H])c(N([H])c2nc(N3C([H])([H])C([H])([H])C([H])([H])C3([H])[H])c3c([H])c([H])c([H])c([H])c3n2)c([H])c([H])c1OC([H])([H])[H]


 25 28  0  0  0  0  0  0  0  0999 V2000
   35.5254  -15.7961   36.3819 C   0  0  0  0  0  0  0  0  0  0  0  0
   36.5939  -16.5087   36.0156 N   0  0  0  0  0  0  0  0  0  0  0  0
   36.5280  -17.6419   35.2871 C   0  0  0  0  0  0  0  0  0  0  0  0
   35.2847  -18.0880   34.9010 C   0  0  0  0  0  0  0  0  0  0  0  0
   35.1304  -19.2356   34.1691 C   0  0  0  0  0  0  0  0  0  0  0  0
   33.8511  -19.6329   33.8200 C   0  0  0  0  0  0  0  0  0  0  0  0
   32.7340  -18.9255   34.1771 C   0  0  0  0  0  0  0  0  0  0  0  0
   32.8702  -17.7781   34.9088 C   0  0  0  0  0  0  0  0  0  0  0  0
   34.1495  -17.3599   35.2713 C   0  0  0  0  0  0  0  0  0  0  0  0
   34.3362  -16.2513   35.9933 N   0  0  0  0  0  0  0  0  0  0  0  0
   37.7305  -18.3157   34.9165 N   0  0  0  0  0  0  0  0  0  0  0  0
   38.5415  -19.1550   35.7391 C   0  0  0  0  0  0  0  0  0  0  0  0
   39.3346  -20.0424   34.7768 C   0  0  0  0  0  0  0  0  0  0  0  0
   38.7479  -19.7271   33.4417 C   0  0  0  0  0  0  0  0  0  0  0  0
   38.3338  -18.2596   33.6063 C   0  0  0  0  0  0  0  0  0  0  0  0
   35.6902  -14.6309   37.1599 N   0  0  0  0  0  0  0  0  0  0  0  0
   36.6224  -14.5590   37.6699 H   0  0  0  0  0  0  0  0  0  0  0  0
   33.1573  -11.2375   37.5975 C   0  0  0  0  0  0  0  0  0  0  0  0
   32.8163  -12.4348   38.1732 C   0  0  0  0  0  0  0  0  0  0  0  0
   33.6178  -13.5819   38.0471 C   0  0  0  0  0  0  0  0  0  0  0  0
   34.7901  -13.5619   37.3375 C   0  0  0  0  0  0  0  0  0  0  0  0
   35.1215  -12.3270   36.7554 C   0  0  0  0  0  0  0  0  0  0  0  0
   34.3316  -11.2092   36.8833 C   0  0  0  0  0  0  0  0  0  0  0  0
   32.7834   -8.8617   37.2303 C   0  0  0  0  0  0  0  0  0  0  0  0
   32.3564  -10.1140   37.7308 O   0  0  0  0  0  0  0  0  0  0  0  0
 24 25  1  0  0  0
 25 18  1  0  0  0
 18 19  2  0  0  0
 19 20  1  0  0  0
 20 21  2  0  0  0
 21 16  1  0  0  0
 16  1  1  0  0  0
  1  2  2  0  0  0
  2  3  1  0  0  0
  3 11  1  0  0  0
 11 12  1  0  0  0
 12 13  1  0  0  0
 13 14  1  0  0  0
 14 15  1  0  0  0
  3  4  2  0  0  0
  4  5  1  0  0  0
  5  6  2  0  0  0
  6  7  1  0  0  0
  7  8  2  0  0  0
  8  9  1  0  0  0
  9 10  2  0  0  0
 21 22  1  0  0  0
 22 23  2  0  0  0
 23 18  1  0  0  0
 10  1  1  0  0  0
 15 11  1  0  0  0
  9  4  1  0  0  0
 16 17  1  0  0  0
M  END
> <minimizedAffinity>
-7.35780

> <CNNscore>
0.3861490786

> <CNNaffinity>
5.5438833237

> <CNN_VS>
2.1407654285

> <CNNaffinity_variance>
0.1667363346

$$$$
[H]c1c([H])c(N([H])c2nc(N3C([H])([H])C([H])([H])C([H])([H])C3([H])[H])c3c([H])c([H])c([H])c([H])c3n2)c([H])c([H])c1OC([H])([H])[H]


 25 28  0  0  0  0  0  0  0  0999 V2000
   34.4016  -17.8542   35.8530 C   0  0  0  0  0  0  0  0  0  0  0  0
   34.8518  -18.8194   36.6589 N   0  0  0  0  0  0  0  0  0  0  0  0
   34.1442  -19.9223   36.9790 C   0  0  0  0  0  0  0  0  0  0  0  0
   32.8840  -20.0572   36.4428 C   0  0  0  0  0  0  0  0  0  0  0  0
   32.0967  -21.1417   36.7265 C   0  0  0  0  0  0  0  0  0  0  0  0
   30.8354  -21.2122   36.1602 C   0  0  0  0  0  0  0  0  0  0  0  0
   30.3432  -20.2417   35.3285 C   0  0  0  0  0  0  0  0  0  0  0  0
   31.1158  -19.1519   35.0357 C   0  0  0  0  0  0  0  0  0  0  0  0
   32.3891  -19.0606   35.5955 C   0  0  0  0  0  0  0  0  0  0  0  0
   33.1798  -18.0124   35.3484 N   0  0  0  0  0  0  0  0  0  0  0  0
   34.7256  -20.9154   37.8234 N   0  0  0  0  0  0  0  0  0  0  0  0
   35.5296  -22.0267   37.4265 C   0  0  0  0  0  0  0  0  0  0  0  0
   36.3361  -22.4224   38.6657 C   0  0  0  0  0  0  0  0  0  0  0  0
   36.0262  -21.3427   39.6477 C   0  0  0  0  0  0  0  0  0  0  0  0
   34.5948  -20.9513   39.2606 C   0  0  0  0  0  0  0  0  0  0  0  0
   35.2069  -16.7267   35.5883 N   0  0  0  0  0  0  0  0  0  0  0  0
   36.0340  -16.9068   34.9419 H   0  0  0  0  0  0  0  0  0  0  0  0
   34.4937  -12.7403   36.9004 C   0  0  0  0  0  0  0  0  0  0  0  0
   35.7472  -13.2881   37.0001 C   0  0  0  0  0  0  0  0  0  0  0  0
   36.0253  -14.6022   36.5877 C   0  0  0  0  0  0  0  0  0  0  0  0
   35.0508  -15.4086   36.0602 C   0  0  0  0  0  0  0  0  0  0  0  0
   33.7743  -14.8295   35.9668 C   0  0  0  0  0  0  0  0  0  0  0  0
   33.5102  -13.5430   36.3730 C   0  0  0  0  0  0  0  0  0  0  0  0
   32.9952  -11.1092   37.9071 C   0  0  0  0  0  0  0  0  0  0  0  0
   34.2343  -11.4421   37.3115 O   0  0  0  0  0  0  0  0  0  0  0  0
 24 25  1  0  0  0
 25 18  1  0  0  0
 18 19  2  0  0  0
 19 20  1  0  0  0
 20 21  2  0  0  0
 21 16  1  0  0  0
 16  1  1  0  0  0
  1  2  2  0  0  0
  2  3  1  0  0  0
  3 11  1  0  0  0
 11 12  1  0  0  0
 12 13  1  0  0  0
 13 14  1  0  0  0
 14 15  1  0  0  0
  3  4  2  0  0  0
  4  5  1  0  0  0
  5  6  2  0  0  0
  6  7  1  0  0  0
  7  8  2  0  0  0
  8  9  1  0  0  0
  9 10  2  0  0  0
 21 22  1  0  0  0
 22 23  2  0  0  0
 23 18  1  0  0  0
 10  1  1  0  0  0
 15 11  1  0  0  0
  9  4  1  0  0  0
 16 17  1  0  0  0
M  END
> <minimizedAffinity>
-6.78271

> <CNNscore>
0.3802013099

> <CNNaffinity>
4.8454604149

> <CNN_VS>
1.8422503471

> <CNNaffinity_variance>
0.2820819318

$$$$
[H]c1c([H])c(N([H])c2nc(N3C([H])([H])C([H])([H])C([H])([H])C3([H])[H])c3c([H])c([H])c([H])c([H])c3n2)c([H])c([H])c1OC([H])([H])[H]


 25 28  0  0  0  0  0  0  0  0999 V2000
   34.0253  -18.9797   34.7121 C   0  0  0  0  0  0  0  0  0  0  0  0
   35.3500  -19.1495   34.7032 N   0  0  0  0  0  0  0  0  0  0  0  0
   36.2319  -18.2018   35.0820 C   0  0  0  0  0  0  0  0  0  0  0  0
   35.7340  -16.9891   35.5008 C   0  0  0  0  0  0  0  0  0  0  0  0
   36.5623  -15.9705   35.8915 C   0  0  0  0  0  0  0  0  0  0  0  0
   35.9967  -14.7728   36.2942 C   0  0  0  0  0  0  0  0  0  0  0  0
   34.6432  -14.5653   36.3173 C   0  0  0  0  0  0  0  0  0  0  0  0
   33.8020  -15.5714   35.9294 C   0  0  0  0  0  0  0  0  0  0  0  0
   34.3504  -16.7857   35.5199 C   0  0  0  0  0  0  0  0  0  0  0  0
   33.5727  -17.7971   35.1229 N   0  0  0  0  0  0  0  0  0  0  0  0
   37.6297  -18.4903   35.0689 N   0  0  0  0  0  0  0  0  0  0  0  0
   38.4508  -18.8462   36.1816 C   0  0  0  0  0  0  0  0  0  0  0  0
   39.6598  -19.5765   35.5918 C   0  0  0  0  0  0  0  0  0  0  0  0
   39.3131  -19.7233   34.1480 C   0  0  0  0  0  0  0  0  0  0  0  0
   38.4612  -18.4746   33.8890 C   0  0  0  0  0  0  0  0  0  0  0  0
   33.1798  -20.0235   34.2813 N   0  0  0  0  0  0  0  0  0  0  0  0
   33.0530  -20.0929   33.2261 H   0  0  0  0  0  0  0  0  0  0  0  0
   31.0442  -23.0248   36.4152 C   0  0  0  0  0  0  0  0  0  0  0  0
   31.5054  -21.9087   37.0654 C   0  0  0  0  0  0  0  0  0  0  0  0
   32.2219  -20.8980   36.4026 C   0  0  0  0  0  0  0  0  0  0  0  0
   32.4976  -20.9769   35.0624 C   0  0  0  0  0  0  0  0  0  0  0  0
   32.0173  -22.1273   34.4148 C   0  0  0  0  0  0  0  0  0  0  0  0
   31.3173  -23.1119   35.0706 C   0  0  0  0  0  0  0  0  0  0  0  0
   30.2252  -25.3127   36.5338 C   0  0  0  0  0  0  0  0  0  0  0  0
   30.3385  -24.0138   37.0825 O   0  0  0  0  0  0  0  0  0  0  0  0
 24 25  1  0  0  0
 25 18  1  0  0  0
 18 19  2  0  0  0
 19 20  1  0  0  0
 20 21  2  0  0  0
 21 16  1  0  0  0
 16  1  1  0  0  0
  1  2  2  0  0  0
  2  3  1  0  0  0
  3 11  1  0  0  0
 11 12  1  0  0  0
 12 13  1  0  0  0
 13 14  1  0  0  0
 14 15  1  0  0  0
  3  4  2  0  0  0
  4  5  1  0  0  0
  5  6  2  0  0  0
  6  7  1  0  0  0
  7  8  2  0  0  0
  8  9  1  0  0  0
  9 10  2  0  0  0
 21 22  1  0  0  0
 22 23  2  0  0  0
 23 18  1  0  0  0
 10  1  1  0  0  0
 15 11  1  0  0  0
  9  4  1  0  0  0
 16 17  1  0  0  0
M  END
> <minimizedAffinity>
-5.94521

> <CNNscore>
0.3318158686

> <CNNaffinity>
4.8439736366

> <CNN_VS>
1.6073073149

> <CNNaffinity_variance>
0.2269484997

$$$$
[H]c1c([H])c(N([H])c2nc(N3C([H])([H])C([H])([H])C([H])([H])C3([H])[H])c3c([H])c([H])c([H])c([H])c3n2)c([H])c([H])c1OC([H])([H])[H]


 25 28  0  0  0  0  0  0  0  0999 V2000
   34.1429  -18.5486   35.8226 C   0  0  0  0  0  0  0  0  0  0  0  0
   34.3842  -19.5822   36.6333 N   0  0  0  0  0  0  0  0  0  0  0  0
   33.4752  -20.5339   36.9289 C   0  0  0  0  0  0  0  0  0  0  0  0
   32.2261  -20.4302   36.3608 C   0  0  0  0  0  0  0  0  0  0  0  0
   31.2431  -21.3488   36.6181 C   0  0  0  0  0  0  0  0  0  0  0  0
   30.0057  -21.1815   36.0203 C   0  0  0  0  0  0  0  0  0  0  0  0
   29.7248  -20.1349   35.1828 C   0  0  0  0  0  0  0  0  0  0  0  0
   30.6945  -19.2082   34.9160 C   0  0  0  0  0  0  0  0  0  0  0  0
   31.9478  -19.3573   35.5078 C   0  0  0  0  0  0  0  0  0  0  0  0
   32.9264  -18.4749   35.2869 N   0  0  0  0  0  0  0  0  0  0  0  0
   33.8391  -21.6194   37.7813 N   0  0  0  0  0  0  0  0  0  0  0  0
   33.7338  -21.6759   39.2042 C   0  0  0  0  0  0  0  0  0  0  0  0
   33.7017  -23.1638   39.5618 C   0  0  0  0  0  0  0  0  0  0  0  0
   33.6166  -23.8433   38.2363 C   0  0  0  0  0  0  0  0  0  0  0  0
   34.3825  -22.8764   37.3248 C   0  0  0  0  0  0  0  0  0  0  0  0
   35.1512  -17.5911   35.5849 N   0  0  0  0  0  0  0  0  0  0  0  0
   36.0208  -17.9654   35.0972 H   0  0  0  0  0  0  0  0  0  0  0  0
   34.8813  -13.4372   36.4768 C   0  0  0  0  0  0  0  0  0  0  0  0
   36.1053  -14.0519   36.4054 C   0  0  0  0  0  0  0  0  0  0  0  0
   36.2405  -15.4216   36.1227 C   0  0  0  0  0  0  0  0  0  0  0  0
   35.1475  -16.2184   35.9016 C   0  0  0  0  0  0  0  0  0  0  0  0
   33.9034  -15.5705   35.9795 C   0  0  0  0  0  0  0  0  0  0  0  0
   33.7797  -14.2298   36.2569 C   0  0  0  0  0  0  0  0  0  0  0  0
   35.4544  -11.1257   35.9793 C   0  0  0  0  0  0  0  0  0  0  0  0
   34.7636  -12.0847   36.7566 O   0  0  0  0  0  0  0  0  0  0  0  0
 24 25  1  0  0  0
 25 18  1  0  0  0
 18 19  2  0  0  0
 19 20  1  0  0  0
 20 21  2  0  0  0
 21 16  1  0  0  0
 16  1  1  0  0  0
  1  2  2  0  0  0
  2  3  1  0  0  0
  3 11  1  0  0  0
 11 12  1  0  0  0
 12 13  1  0  0  0
 13 14  1  0  0  0
 14 15  1  0  0  0
  3  4  2  0  0  0
  4  5  1  0  0  0
  5  6  2  0  0  0
  6  7  1  0  0  0
  7  8  2  0  0  0
  8  9  1  0  0  0
  9 10  2  0  0  0
 21 22  1  0  0  0
 22 23  2  0  0  0
 23 18  1  0  0  0
 10  1  1  0  0  0
 15 11  1  0  0  0
  9  4  1  0  0  0
 16 17  1  0  0  0
M  END
> <minimizedAffinity>
-6.25812

> <CNNscore>
0.3245029151

> <CNNaffinity>
4.6634569168

> <CNN_VS>
1.5133053064

> <CNNaffinity_variance>
0.4146163464

$$$$
[H]OC12N(C([H])([H])c3c([H])c([H])c(OC([H])([H])[H])c([H])c3[H])C3([H])C4([H])C5([H])C([H])([H])C([H])(C14[H])C1([H])C2([H])C3([H])C51[H]


 23 29  0  0  0  0  0  0  0  0999 V2000
   33.6109  -19.0068   35.6449 N   0  0  0  0  0  0  0  0  0  0  0  0
   33.9175  -20.3470   35.1634 C   0  0  0  0  0  0  0  0  0  0  0  0
   33.1995  -21.1581   36.2197 C   0  0  0  0  0  0  0  0  0  0  0  0
   32.6689  -22.3542   35.4841 C   0  0  0  0  0  0  0  0  0  0  0  0
   31.3219  -22.5387   36.1933 C   0  0  0  0  0  0  0  0  0  0  0  0
   30.8334  -21.0975   35.9856 C   0  0  0  0  0  0  0  0  0  0  0  0
   31.0056  -20.9366   34.5092 C   0  0  0  0  0  0  0  0  0  0  0  0
   32.2405  -21.7858   34.1746 C   0  0  0  0  0  0  0  0  0  0  0  0
   33.0496  -20.5427   33.9618 C   0  0  0  0  0  0  0  0  0  0  0  0
   31.8109  -19.7055   34.2891 C   0  0  0  0  0  0  0  0  0  0  0  0
   32.1726  -19.1153   35.6281 C   0  0  0  0  0  0  0  0  0  0  0  0
   31.4665  -18.0298   35.9998 O   0  0  0  0  0  0  0  0  0  0  0  0
   31.9773  -20.3219   36.5444 C   0  0  0  0  0  0  0  0  0  0  0  0
   30.6782  -17.8959   35.4185 H   0  0  0  0  0  0  0  0  0  0  0  0
   34.1639  -17.9825   34.8218 C   0  0  0  0  0  0  0  0  0  0  0  0
   36.4374  -15.3032   37.3212 C   0  0  0  0  0  0  0  0  0  0  0  0
   35.2407  -14.9159   36.7592 C   0  0  0  0  0  0  0  0  0  0  0  0
   34.5147  -15.7695   35.9578 C   0  0  0  0  0  0  0  0  0  0  0  0
   34.9512  -17.0604   35.6762 C   0  0  0  0  0  0  0  0  0  0  0  0
   36.1656  -17.4316   36.2558 C   0  0  0  0  0  0  0  0  0  0  0  0
   36.8892  -16.5763   37.0566 C   0  0  0  0  0  0  0  0  0  0  0  0
   38.0410  -13.4652   37.5780 C   0  0  0  0  0  0  0  0  0  0  0  0
   37.1626  -14.4228   38.1335 O   0  0  0  0  0  0  0  0  0  0  0  0
 22 23  1  0  0  0
 23 16  1  0  0  0
 16 17  2  0  0  0
 17 18  1  0  0  0
 18 19  2  0  0  0
 19 15  1  0  0  0
 15  1  1  0  0  0
  1  2  1  0  0  0
  2  3  1  0  0  0
  3  4  1  0  0  0
  4  5  1  0  0  0
  5  6  1  0  0  0
  6  7  1  0  0  0
  7  8  1  0  0  0
  8  9  1  0  0  0
  9 10  1  0  0  0
 10 11  1  0  0  0
 11 12  1  0  0  0
 11 13  1  0  0  0
 19 20  1  0  0  0
 20 21  2  0  0  0
 21 16  1  0  0  0
 11  1  1  0  0  0
  9  2  1  0  0  0
 13  3  1  0  0  0
  8  4  1  0  0  0
 13  6  1  0  0  0
 10  7  1  0  0  0
 12 14  1  0  0  0
M  END
> <minimizedAffinity>
-6.54359

> <CNNscore>
0.7107018232

> <CNNaffinity>
4.8399491310

> <CNN_VS>
3.4397606850

> <CNNaffinity_variance>
0.1825282276

$$$$
[H]OC12N(C([H])([H])c3c([H])c([H])c(OC([H])([H])[H])c([H])c3[H])C3([H])C4([H])C5([H])C([H])([H])C([H])(C14[H])C1([H])C2([H])C3([H])C51[H]


 23 29  0  0  0  0  0  0  0  0999 V2000
   33.8655  -19.0900   35.2471 N   0  0  0  0  0  0  0  0  0  0  0  0
   34.4002  -17.8256   34.7599 C   0  0  0  0  0  0  0  0  0  0  0  0
   34.9054  -17.2526   36.0660 C   0  0  0  0  0  0  0  0  0  0  0  0
   36.1523  -16.5037   35.6946 C   0  0  0  0  0  0  0  0  0  0  0  0
   37.0286  -16.8047   36.9164 C   0  0  0  0  0  0  0  0  0  0  0  0
   36.8742  -18.3314   36.8515 C   0  0  0  0  0  0  0  0  0  0  0  0
   37.2617  -18.6080   35.4342 C   0  0  0  0  0  0  0  0  0  0  0  0
   36.7765  -17.3747   34.6587 C   0  0  0  0  0  0  0  0  0  0  0  0
   35.6684  -18.1802   34.0518 C   0  0  0  0  0  0  0  0  0  0  0  0
   36.1649  -19.4054   34.8231 C   0  0  0  0  0  0  0  0  0  0  0  0
   35.0752  -19.5980   35.8466 C   0  0  0  0  0  0  0  0  0  0  0  0
   35.0172  -20.8165   36.4183 O   0  0  0  0  0  0  0  0  0  0  0  0
   35.3901  -18.4703   36.8279 C   0  0  0  0  0  0  0  0  0  0  0  0
   35.8267  -21.3476   36.2184 H   0  0  0  0  0  0  0  0  0  0  0  0
   33.3054  -19.8912   34.2094 C   0  0  0  0  0  0  0  0  0  0  0  0
   29.5486  -21.4896   35.5972 C   0  0  0  0  0  0  0  0  0  0  0  0
   30.6464  -22.3006   35.4100 C   0  0  0  0  0  0  0  0  0  0  0  0
   31.8465  -21.7921   34.9636 C   0  0  0  0  0  0  0  0  0  0  0  0
   32.0101  -20.4397   34.6801 C   0  0  0  0  0  0  0  0  0  0  0  0
   30.8853  -19.6368   34.8766 C   0  0  0  0  0  0  0  0  0  0  0  0
   29.6870  -20.1478   35.3231 C   0  0  0  0  0  0  0  0  0  0  0  0
   28.0520  -23.4027   35.9376 C   0  0  0  0  0  0  0  0  0  0  0  0
   28.3363  -22.0231   36.0516 O   0  0  0  0  0  0  0  0  0  0  0  0
 22 23  1  0  0  0
 23 16  1  0  0  0
 16 17  2  0  0  0
 17 18  1  0  0  0
 18 19  2  0  0  0
 19 15  1  0  0  0
 15  1  1  0  0  0
  1  2  1  0  0  0
  2  3  1  0  0  0
  3  4  1  0  0  0
  4  5  1  0  0  0
  5  6  1  0  0  0
  6  7  1  0  0  0
  7  8  1  0  0  0
  8  9  1  0  0  0
  9 10  1  0  0  0
 10 11  1  0  0  0
 11 12  1  0  0  0
 11 13  1  0  0  0
 19 20  1  0  0  0
 20 21  2  0  0  0
 21 16  1  0  0  0
 11  1  1  0  0  0
  9  2  1  0  0  0
 13  3  1  0  0  0
  8  4  1  0  0  0
 13  6  1  0  0  0
 10  7  1  0  0  0
 12 14  1  0  0  0
M  END
> <minimizedAffinity>
-6.39993

> <CNNscore>
0.6651778221

> <CNNaffinity>
4.5984849930

> <CNN_VS>
3.0588102341

> <CNNaffinity_variance>
0.4011810422

$$$$
[H]OC12N(C([H])([H])c3c([H])c([H])c(OC([H])([H])[H])c([H])c3[H])C3([H])C4([H])C5([H])C([H])([H])C([H])(C14[H])C1([H])C2([H])C3([H])C51[H]


 23 29  0  0  0  0  0  0  0  0999 V2000
   30.2659  -20.7499   36.2891 N   0  0  0  0  0  0  0  0  0  0  0  0
   30.8438  -22.0624   36.0336 C   0  0  0  0  0  0  0  0  0  0  0  0
   30.6526  -22.6854   37.3991 C   0  0  0  0  0  0  0  0  0  0  0  0
   30.3539  -24.1296   37.1187 C   0  0  0  0  0  0  0  0  0  0  0  0
   29.3151  -24.4131   38.2104 C   0  0  0  0  0  0  0  0  0  0  0  0
   28.3858  -23.2434   37.8542 C   0  0  0  0  0  0  0  0  0  0  0  0
   28.1711  -23.4708   36.3921 C   0  0  0  0  0  0  0  0  0  0  0  0
   29.4970  -24.0696   35.9008 C   0  0  0  0  0  0  0  0  0  0  0  0
   29.8305  -22.7851   35.2050 C   0  0  0  0  0  0  0  0  0  0  0  0
   28.5031  -22.2004   35.6932 C   0  0  0  0  0  0  0  0  0  0  0  0
   28.9590  -21.1889   36.7136 C   0  0  0  0  0  0  0  0  0  0  0  0
   28.0619  -20.2370   37.0363 O   0  0  0  0  0  0  0  0  0  0  0  0
   29.3402  -22.0985   37.8802 C   0  0  0  0  0  0  0  0  0  0  0  0
   27.1614  -20.4592   36.6942 H   0  0  0  0  0  0  0  0  0  0  0  0
   30.2918  -19.9007   35.1442 C   0  0  0  0  0  0  0  0  0  0  0  0
   34.3777  -18.8082   34.3041 C   0  0  0  0  0  0  0  0  0  0  0  0
   33.7518  -19.8237   33.6148 C   0  0  0  0  0  0  0  0  0  0  0  0
   32.4476  -20.1762   33.8842 C   0  0  0  0  0  0  0  0  0  0  0  0
   31.6993  -19.5276   34.8619 C   0  0  0  0  0  0  0  0  0  0  0  0
   32.3530  -18.5024   35.5475 C   0  0  0  0  0  0  0  0  0  0  0  0
   33.6568  -18.1521   35.2760 C   0  0  0  0  0  0  0  0  0  0  0  0
   36.6805  -18.3882   35.0363 C   0  0  0  0  0  0  0  0  0  0  0  0
   35.7040  -18.4627   34.0174 O   0  0  0  0  0  0  0  0  0  0  0  0
 22 23  1  0  0  0
 23 16  1  0  0  0
 16 17  2  0  0  0
 17 18  1  0  0  0
 18 19  2  0  0  0
 19 15  1  0  0  0
 15  1  1  0  0  0
  1  2  1  0  0  0
  2  3  1  0  0  0
  3  4  1  0  0  0
  4  5  1  0  0  0
  5  6  1  0  0  0
  6  7  1  0  0  0
  7  8  1  0  0  0
  8  9  1  0  0  0
  9 10  1  0  0  0
 10 11  1  0  0  0
 11 12  1  0  0  0
 11 13  1  0  0  0
 19 20  1  0  0  0
 20 21  2  0  0  0
 21 16  1  0  0  0
 11  1  1  0  0  0
  9  2  1  0  0  0
 13  3  1  0  0  0
  8  4  1  0  0  0
 13  6  1  0  0  0
 10  7  1  0  0  0
 12 14  1  0  0  0
M  END
> <minimizedAffinity>
-5.38994

> <CNNscore>
0.5549452901

> <CNNaffinity>
4.2035760880

> <CNN_VS>
2.3327548504

> <CNNaffinity_variance>
0.4493057132

$$$$
[H]OC12N(C([H])([H])c3c([H])c([H])c(OC([H])([H])[H])c([H])c3[H])C3([H])C4([H])C5([H])C([H])([H])C([H])(C14[H])C1([H])C2([H])C3([H])C51[H]


 23 29  0  0  0  0  0  0  0  0999 V2000
   33.7954  -19.1031   35.1604 N   0  0  0  0  0  0  0  0  0  0  0  0
   34.3215  -17.8312   34.6833 C   0  0  0  0  0  0  0  0  0  0  0  0
   34.7718  -17.2413   36.0018 C   0  0  0  0  0  0  0  0  0  0  0  0
   36.0156  -16.4702   35.6674 C   0  0  0  0  0  0  0  0  0  0  0  0
   36.8565  -16.7472   36.9193 C   0  0  0  0  0  0  0  0  0  0  0  0
   36.7339  -18.2769   36.8587 C   0  0  0  0  0  0  0  0  0  0  0  0
   37.1736  -18.5537   35.4568 C   0  0  0  0  0  0  0  0  0  0  0  0
   36.6906  -17.3345   34.6581 C   0  0  0  0  0  0  0  0  0  0  0  0
   35.6191  -18.1649   34.0198 C   0  0  0  0  0  0  0  0  0  0  0  0
   36.1133  -19.3758   34.8146 C   0  0  0  0  0  0  0  0  0  0  0  0
   34.9942  -19.5840   35.8027 C   0  0  0  0  0  0  0  0  0  0  0  0
   34.9408  -20.8003   36.3797 O   0  0  0  0  0  0  0  0  0  0  0  0
   35.2544  -18.4450   36.7869 C   0  0  0  0  0  0  0  0  0  0  0  0
   35.7666  -21.3166   36.2099 H   0  0  0  0  0  0  0  0  0  0  0  0
   33.2857  -19.9208   34.1097 C   0  0  0  0  0  0  0  0  0  0  0  0
   30.1966  -22.4688   35.7094 C   0  0  0  0  0  0  0  0  0  0  0  0
   30.2874  -21.1418   36.0682 C   0  0  0  0  0  0  0  0  0  0  0  0
   31.2756  -20.3272   35.5606 C   0  0  0  0  0  0  0  0  0  0  0  0
   32.2283  -20.8010   34.6638 C   0  0  0  0  0  0  0  0  0  0  0  0
   32.1174  -22.1479   34.3142 C   0  0  0  0  0  0  0  0  0  0  0  0
   31.1284  -22.9598   34.8231 C   0  0  0  0  0  0  0  0  0  0  0  0
   28.6183  -23.0235   37.5030 C   0  0  0  0  0  0  0  0  0  0  0  0
   29.1855  -23.2828   36.2348 O   0  0  0  0  0  0  0  0  0  0  0  0
 22 23  1  0  0  0
 23 16  1  0  0  0
 16 17  2  0  0  0
 17 18  1  0  0  0
 18 19  2  0  0  0
 19 15  1  0  0  0
 15  1  1  0  0  0
  1  2  1  0  0  0
  2  3  1  0  0  0
  3  4  1  0  0  0
  4  5  1  0  0  0
  5  6  1  0  0  0
  6  7  1  0  0  0
  7  8  1  0  0  0
  8  9  1  0  0  0
  9 10  1  0  0  0
 10 11  1  0  0  0
 11 12  1  0  0  0
 11 13  1  0  0  0
 19 20  1  0  0  0
 20 21  2  0  0  0
 21 16  1  0  0  0
 11  1  1  0  0  0
  9  2  1  0  0  0
 13  3  1  0  0  0
  8  4  1  0  0  0
 13  6  1  0  0  0
 10  7  1  0  0  0
 12 14  1  0  0  0
M  END
> <minimizedAffinity>
-6.02450

> <CNNscore>
0.5540596247

> <CNNaffinity>
4.4735465050

> <CNN_VS>
2.4786114693

> <CNNaffinity_variance>
0.3077746332

$$$$
[H]OC12N(C([H])([H])c3c([H])c([H])c(OC([H])([H])[H])c([H])c3[H])C3([H])C4([H])C5([H])C([H])([H])C([H])(C14[H])C1([H])C2([H])C3([H])C51[H]


 23 29  0  0  0  0  0  0  0  0999 V2000
   33.9291  -19.0207   35.4121 N   0  0  0  0  0  0  0  0  0  0  0  0
   34.4279  -18.0781   36.4044 C   0  0  0  0  0  0  0  0  0  0  0  0
   35.6800  -18.8117   36.8329 C   0  0  0  0  0  0  0  0  0  0  0  0
   36.6801  -17.7266   37.1079 C   0  0  0  0  0  0  0  0  0  0  0  0
   37.9592  -18.3920   36.5859 C   0  0  0  0  0  0  0  0  0  0  0  0
   37.4040  -18.7370   35.1961 C   0  0  0  0  0  0  0  0  0  0  0  0
   36.8883  -17.4080   34.7453 C   0  0  0  0  0  0  0  0  0  0  0  0
   36.4041  -16.7296   36.0349 C   0  0  0  0  0  0  0  0  0  0  0  0
   34.9791  -16.9322   35.6181 C   0  0  0  0  0  0  0  0  0  0  0  0
   35.4723  -17.5998   34.3322 C   0  0  0  0  0  0  0  0  0  0  0  0
   35.0910  -19.0406   34.5573 C   0  0  0  0  0  0  0  0  0  0  0  0
   35.0329  -19.8106   33.4533 O   0  0  0  0  0  0  0  0  0  0  0  0
   36.1605  -19.4756   35.5575 C   0  0  0  0  0  0  0  0  0  0  0  0
   35.4401  -19.3567   32.6751 H   0  0  0  0  0  0  0  0  0  0  0  0
   32.7168  -18.5892   34.7985 C   0  0  0  0  0  0  0  0  0  0  0  0
   29.5211  -21.2035   36.0426 C   0  0  0  0  0  0  0  0  0  0  0  0
   29.2629  -20.0129   35.3993 C   0  0  0  0  0  0  0  0  0  0  0  0
   30.2826  -19.1750   35.0041 C   0  0  0  0  0  0  0  0  0  0  0  0
   31.6191  -19.4869   35.2335 C   0  0  0  0  0  0  0  0  0  0  0  0
   31.8575  -20.6974   35.8864 C   0  0  0  0  0  0  0  0  0  0  0  0
   30.8363  -21.5331   36.2803 C   0  0  0  0  0  0  0  0  0  0  0  0
   28.3634  -23.3635   35.9447 C   0  0  0  0  0  0  0  0  0  0  0  0
   28.4726  -22.0434   36.4374 O   0  0  0  0  0  0  0  0  0  0  0  0
 22 23  1  0  0  0
 23 16  1  0  0  0
 16 17  2  0  0  0
 17 18  1  0  0  0
 18 19  2  0  0  0
 19 15  1  0  0  0
 15  1  1  0  0  0
  1  2  1  0  0  0
  2  3  1  0  0  0
  3  4  1  0  0  0
  4  5  1  0  0  0
  5  6  1  0  0  0
  6  7  1  0  0  0
  7  8  1  0  0  0
  8  9  1  0  0  0
  9 10  1  0  0  0
 10 11  1  0  0  0
 11 12  1  0  0  0
 11 13  1  0  0  0
 19 20  1  0  0  0
 20 21  2  0  0  0
 21 16  1  0  0  0
 11  1  1  0  0  0
  9  2  1  0  0  0
 13  3  1  0  0  0
  8  4  1  0  0  0
 13  6  1  0  0  0
 10  7  1  0  0  0
 12 14  1  0  0  0
M  END
> <minimizedAffinity>
-6.06645

> <CNNscore>
0.5494293571

> <CNNaffinity>
4.5373511314

> <CNN_VS>
2.4929540157

> <CNNaffinity_variance>
0.5862526894

$$$$
[H]OC12N(C([H])([H])c3c([H])c([H])c(OC([H])([H])[H])c([H])c3[H])C3([H])C4([H])C5([H])C([H])([H])C([H])(C14[H])C1([H])C2([H])C3([H])C51[H]


 23 29  0  0  0  0  0  0  0  0999 V2000
   36.7207  -18.9935   35.2795 N   0  0  0  0  0  0  0  0  0  0  0  0
   38.0571  -18.4547   35.0657 C   0  0  0  0  0  0  0  0  0  0  0  0
   38.5674  -18.4900   36.4896 C   0  0  0  0  0  0  0  0  0  0  0  0
   40.0250  -18.8253   36.3621 C   0  0  0  0  0  0  0  0  0  0  0  0
   40.2070  -19.7327   37.5847 C   0  0  0  0  0  0  0  0  0  0  0  0
   39.0567  -20.6917   37.2445 C   0  0  0  0  0  0  0  0  0  0  0  0
   39.3962  -21.0744   35.8396 C   0  0  0  0  0  0  0  0  0  0  0  0
   40.0500  -19.8166   35.2494 C   0  0  0  0  0  0  0  0  0  0  0  0
   38.8293  -19.5598   34.4192 C   0  0  0  0  0  0  0  0  0  0  0  0
   38.1898  -20.8195   35.0077 C   0  0  0  0  0  0  0  0  0  0  0  0
   37.1069  -20.2447   35.8847 C   0  0  0  0  0  0  0  0  0  0  0  0
   36.1204  -21.0945   36.2306 O   0  0  0  0  0  0  0  0  0  0  0  0
   37.9264  -19.7356   37.0692 C   0  0  0  0  0  0  0  0  0  0  0  0
   36.3567  -22.0294   36.0127 H   0  0  0  0  0  0  0  0  0  0  0  0
   35.9653  -19.0959   34.0748 C   0  0  0  0  0  0  0  0  0  0  0  0
   31.7711  -19.0293   35.0738 C   0  0  0  0  0  0  0  0  0  0  0  0
   32.2578  -19.8514   34.0812 C   0  0  0  0  0  0  0  0  0  0  0  0
   33.5969  -19.8715   33.7586 C   0  0  0  0  0  0  0  0  0  0  0  0
   34.5221  -19.0661   34.4156 C   0  0  0  0  0  0  0  0  0  0  0  0
   34.0072  -18.2414   35.4173 C   0  0  0  0  0  0  0  0  0  0  0  0
   32.6681  -18.2234   35.7378 C   0  0  0  0  0  0  0  0  0  0  0  0
   29.6548  -20.2173   35.4279 C   0  0  0  0  0  0  0  0  0  0  0  0
   30.4068  -19.0214   35.3891 O   0  0  0  0  0  0  0  0  0  0  0  0
 22 23  1  0  0  0
 23 16  1  0  0  0
 16 17  2  0  0  0
 17 18  1  0  0  0
 18 19  2  0  0  0
 19 15  1  0  0  0
 15  1  1  0  0  0
  1  2  1  0  0  0
  2  3  1  0  0  0
  3  4  1  0  0  0
  4  5  1  0  0  0
  5  6  1  0  0  0
  6  7  1  0  0  0
  7  8  1  0  0  0
  8  9  1  0  0  0
  9 10  1  0  0  0
 10 11  1  0  0  0
 11 12  1  0  0  0
 11 13  1  0  0  0
 19 20  1  0  0  0
 20 21  2  0  0  0
 21 16  1  0  0  0
 11  1  1  0  0  0
  9  2  1  0  0  0
 13  3  1  0  0  0
  8  4  1  0  0  0
 13  6  1  0  0  0
 10  7  1  0  0  0
 12 14  1  0  0  0
M  END
> <minimizedAffinity>
-5.55464

> <CNNscore>
0.5483680367

> <CNNaffinity>
4.5334005356

> <CNN_VS>
2.4859719276

> <CNNaffinity_variance>
0.1506493986

$$$$
[H]OC12N(C([H])([H])c3c([H])c([H])c(OC([H])([H])[H])c([H])c3[H])C3([H])C4([H])C5([H])C([H])([H])C([H])(C14[H])C1([H])C2([H])C3([H])C51[H]


 23 29  0  0  0  0  0  0  0  0999 V2000
   34.6535  -17.6802   34.8163 N   0  0  0  0  0  0  0  0  0  0  0  0
   33.4346  -17.8111   35.6032 C   0  0  0  0  0  0  0  0  0  0  0  0
   32.5175  -18.3810   34.5433 C   0  0  0  0  0  0  0  0  0  0  0  0
   31.6266  -19.3345   35.2852 C   0  0  0  0  0  0  0  0  0  0  0  0
   31.4900  -20.4513   34.2433 C   0  0  0  0  0  0  0  0  0  0  0  0
   32.9971  -20.6524   34.0263 C   0  0  0  0  0  0  0  0  0  0  0  0
   33.4745  -20.8481   35.4295 C   0  0  0  0  0  0  0  0  0  0  0  0
   32.5482  -19.9615   36.2745 C   0  0  0  0  0  0  0  0  0  0  0  0
   33.6658  -18.9881   36.4958 C   0  0  0  0  0  0  0  0  0  0  0  0
   34.5828  -19.8829   35.6586 C   0  0  0  0  0  0  0  0  0  0  0  0
   34.7758  -19.0592   34.4111 C   0  0  0  0  0  0  0  0  0  0  0  0
   35.8382  -19.3880   33.6505 O   0  0  0  0  0  0  0  0  0  0  0  0
   33.4317  -19.2611   33.7138 C   0  0  0  0  0  0  0  0  0  0  0  0
   36.2263  -20.2539   33.9280 H   0  0  0  0  0  0  0  0  0  0  0  0
   35.7454  -17.1572   35.5690 C   0  0  0  0  0  0  0  0  0  0  0  0
   34.7907  -13.1278   36.7721 C   0  0  0  0  0  0  0  0  0  0  0  0
   36.0745  -13.6185   36.8675 C   0  0  0  0  0  0  0  0  0  0  0  0
   36.3806  -14.9066   36.4866 C   0  0  0  0  0  0  0  0  0  0  0  0
   35.4131  -15.7739   35.9886 C   0  0  0  0  0  0  0  0  0  0  0  0
   34.1198  -15.2561   35.9006 C   0  0  0  0  0  0  0  0  0  0  0  0
   33.8167  -13.9680   36.2819 C   0  0  0  0  0  0  0  0  0  0  0  0
   33.2655  -11.4899   37.7753 C   0  0  0  0  0  0  0  0  0  0  0  0
   34.4971  -11.8159   37.1635 O   0  0  0  0  0  0  0  0  0  0  0  0
 22 23  1  0  0  0
 23 16  1  0  0  0
 16 17  2  0  0  0
 17 18  1  0  0  0
 18 19  2  0  0  0
 19 15  1  0  0  0
 15  1  1  0  0  0
  1  2  1  0  0  0
  2  3  1  0  0  0
  3  4  1  0  0  0
  4  5  1  0  0  0
  5  6  1  0  0  0
  6  7  1  0  0  0
  7  8  1  0  0  0
  8  9  1  0  0  0
  9 10  1  0  0  0
 10 11  1  0  0  0
 11 12  1  0  0  0
 11 13  1  0  0  0
 19 20  1  0  0  0
 20 21  2  0  0  0
 21 16  1  0  0  0
 11  1  1  0  0  0
  9  2  1  0  0  0
 13  3  1  0  0  0
  8  4  1  0  0  0
 13  6  1  0  0  0
 10  7  1  0  0  0
 12 14  1  0  0  0
M  END
> <minimizedAffinity>
-7.22719

> <CNNscore>
0.5409306288

> <CNNaffinity>
4.7752656937

> <CNN_VS>
2.5830874443

> <CNNaffinity_variance>
0.3830365539

$$$$
[H]OC12N(C([H])([H])c3c([H])c([H])c(OC([H])([H])[H])c([H])c3[H])C3([H])C4([H])C5([H])C([H])([H])C([H])(C14[H])C1([H])C2([H])C3([H])C51[H]


 23 29  0  0  0  0  0  0  0  0999 V2000
   31.3605  -19.8920   35.6317 N   0  0  0  0  0  0  0  0  0  0  0  0
   31.7398  -18.5368   35.2559 C   0  0  0  0  0  0  0  0  0  0  0  0
   32.8917  -18.3288   36.2146 C   0  0  0  0  0  0  0  0  0  0  0  0
   33.8757  -17.4923   35.4496 C   0  0  0  0  0  0  0  0  0  0  0  0
   35.1949  -18.0990   35.9425 C   0  0  0  0  0  0  0  0  0  0  0  0
   34.8371  -19.5541   35.6057 C   0  0  0  0  0  0  0  0  0  0  0  0
   34.4359  -19.4355   34.1704 C   0  0  0  0  0  0  0  0  0  0  0  0
   33.7913  -18.0456   34.0683 C   0  0  0  0  0  0  0  0  0  0  0  0
   32.4364  -18.6726   33.9399 C   0  0  0  0  0  0  0  0  0  0  0  0
   33.0897  -20.0534   34.0347 C   0  0  0  0  0  0  0  0  0  0  0  0
   32.6332  -20.5271   35.3909 C   0  0  0  0  0  0  0  0  0  0  0  0
   32.7116  -21.8549   35.6046 O   0  0  0  0  0  0  0  0  0  0  0  0
   33.5311  -19.7002   36.3094 C   0  0  0  0  0  0  0  0  0  0  0  0
   33.2422  -22.3029   34.9010 H   0  0  0  0  0  0  0  0  0  0  0  0
   30.2650  -20.3925   34.8689 C   0  0  0  0  0  0  0  0  0  0  0  0
   27.8052  -22.8581   37.4114 C   0  0  0  0  0  0  0  0  0  0  0  0
   27.8597  -21.4912   37.5752 C   0  0  0  0  0  0  0  0  0  0  0  0
   28.6476  -20.7024   36.7659 C   0  0  0  0  0  0  0  0  0  0  0  0
   29.4250  -21.2435   35.7465 C   0  0  0  0  0  0  0  0  0  0  0  0
   29.3545  -22.6297   35.5985 C   0  0  0  0  0  0  0  0  0  0  0  0
   28.5660  -23.4158   36.4089 C   0  0  0  0  0  0  0  0  0  0  0  0
   27.2981  -25.0051   38.4831 C   0  0  0  0  0  0  0  0  0  0  0  0
   26.9988  -23.6450   38.2428 O   0  0  0  0  0  0  0  0  0  0  0  0
 22 23  1  0  0  0
 23 16  1  0  0  0
 16 17  2  0  0  0
 17 18  1  0  0  0
 18 19  2  0  0  0
 19 15  1  0  0  0
 15  1  1  0  0  0
  1  2  1  0  0  0
  2  3  1  0  0  0
  3  4  1  0  0  0
  4  5  1  0  0  0
  5  6  1  0  0  0
  6  7  1  0  0  0
  7  8  1  0  0  0
  8  9  1  0  0  0
  9 10  1  0  0  0
 10 11  1  0  0  0
 11 12  1  0  0  0
 11 13  1  0  0  0
 19 20  1  0  0  0
 20 21  2  0  0  0
 21 16  1  0  0  0
 11  1  1  0  0  0
  9  2  1  0  0  0
 13  3  1  0  0  0
  8  4  1  0  0  0
 13  6  1  0  0  0
 10  7  1  0  0  0
 12 14  1  0  0  0
M  END
> <minimizedAffinity>
-4.99284

> <CNNscore>
0.5391931534

> <CNNaffinity>
4.2638511658

> <CNN_VS>
2.2990393639

> <CNNaffinity_variance>
0.5893340111

$$$$
[H]OC12N(C([H])([H])c3c([H])c([H])c(OC([H])([H])[H])c([H])c3[H])C3([H])C4([H])C5([H])C([H])([H])C([H])(C14[H])C1([H])C2([H])C3([H])C51[H]


 23 29  0  0  0  0  0  0  0  0999 V2000
   34.8201  -19.7311   37.1323 N   0  0  0  0  0  0  0  0  0  0  0  0
   35.6460  -19.6841   38.3312 C   0  0  0  0  0  0  0  0  0  0  0  0
   34.7046  -20.3583   39.3051 C   0  0  0  0  0  0  0  0  0  0  0  0
   35.6009  -21.1466   40.2153 C   0  0  0  0  0  0  0  0  0  0  0  0
   34.7405  -22.3969   40.4340 C   0  0  0  0  0  0  0  0  0  0  0  0
   34.5207  -22.7020   38.9449 C   0  0  0  0  0  0  0  0  0  0  0  0
   35.9258  -22.7116   38.4343 C   0  0  0  0  0  0  0  0  0  0  0  0
   36.6507  -21.6653   39.2932 C   0  0  0  0  0  0  0  0  0  0  0  0
   36.6983  -20.7263   38.1265 C   0  0  0  0  0  0  0  0  0  0  0  0
   35.9826  -21.7790   37.2769 C   0  0  0  0  0  0  0  0  0  0  0  0
   34.6220  -21.1592   37.0849 C   0  0  0  0  0  0  0  0  0  0  0  0
   33.8943  -21.6486   36.0622 O   0  0  0  0  0  0  0  0  0  0  0  0
   33.9943  -21.3952   38.4574 C   0  0  0  0  0  0  0  0  0  0  0  0
   34.2885  -22.4821   35.7055 H   0  0  0  0  0  0  0  0  0  0  0  0
   35.4607  -19.1571   35.9953 C   0  0  0  0  0  0  0  0  0  0  0  0
   36.2657  -15.0057   36.8392 C   0  0  0  0  0  0  0  0  0  0  0  0
   35.0605  -15.4074   36.3062 C   0  0  0  0  0  0  0  0  0  0  0  0
   34.8029  -16.7329   36.0329 C   0  0  0  0  0  0  0  0  0  0  0  0
   35.7426  -17.7290   36.2801 C   0  0  0  0  0  0  0  0  0  0  0  0
   36.9561  -17.2996   36.8199 C   0  0  0  0  0  0  0  0  0  0  0  0
   37.2109  -15.9739   37.0922 C   0  0  0  0  0  0  0  0  0  0  0  0
   37.8038  -13.1960   37.4513 C   0  0  0  0  0  0  0  0  0  0  0  0
   36.5109  -13.6541   37.1109 O   0  0  0  0  0  0  0  0  0  0  0  0
 22 23  1  0  0  0
 23 16  1  0  0  0
 16 17  2  0  0  0
 17 18  1  0  0  0
 18 19  2  0  0  0
 19 15  1  0  0  0
 15  1  1  0  0  0
  1  2  1  0  0  0
  2  3  1  0  0  0
  3  4  1  0  0  0
  4  5  1  0  0  0
  5  6  1  0  0  0
  6  7  1  0  0  0
  7  8  1  0  0  0
  8  9  1  0  0  0
  9 10  1  0  0  0
 10 11  1  0  0  0
 11 12  1  0  0  0
 11 13  1  0  0  0
 19 20  1  0  0  0
 20 21  2  0  0  0
 21 16  1  0  0  0
 11  1  1  0  0  0
  9  2  1  0  0  0
 13  3  1  0  0  0
  8  4  1  0  0  0
 13  6  1  0  0  0
 10  7  1  0  0  0
 12 14  1  0  0  0
M  END
> <minimizedAffinity>
-5.13892

> <CNNscore>
0.5336299539

> <CNNaffinity>
4.3462800980

> <CNN_VS>
2.3193051815

> <CNNaffinity_variance>
0.1497804821

$$$$
[H]c1nc(N2C([H])([H])C([H])([H])N(C([H])([H])C([H])([H])C([H])([H])Sc3c([H])c([H])c(F)c([H])c3[H])C([H])([H])C2([H])[H])c([H])c([H])c1[H]


 23 25  0  0  0  0  0  0  0  0999 V2000
   33.8898  -18.6467   34.8152 N   0  0  0  0  0  0  0  0  0  0  0  0
   32.6373  -18.5234   34.1111 C   0  0  0  0  0  0  0  0  0  0  0  0
   31.7671  -19.7497   34.1376 C   0  0  0  0  0  0  0  0  0  0  0  0
   31.6793  -20.3596   35.4277 N   0  0  0  0  0  0  0  0  0  0  0  0
   32.7969  -20.2426   36.3280 C   0  0  0  0  0  0  0  0  0  0  0  0
   34.0112  -19.8983   35.5186 C   0  0  0  0  0  0  0  0  0  0  0  0
   30.5017  -21.0648   35.7896 C   0  0  0  0  0  0  0  0  0  0  0  0
   30.3040  -22.3912   35.4821 C   0  0  0  0  0  0  0  0  0  0  0  0
   29.1316  -23.0610   35.8398 C   0  0  0  0  0  0  0  0  0  0  0  0
   28.1449  -22.3965   36.5134 C   0  0  0  0  0  0  0  0  0  0  0  0
   28.3644  -21.0721   36.8103 C   0  0  0  0  0  0  0  0  0  0  0  0
   29.4945  -20.4438   36.4600 N   0  0  0  0  0  0  0  0  0  0  0  0
   35.0190  -18.3968   33.9458 C   0  0  0  0  0  0  0  0  0  0  0  0
   36.2334  -19.0998   34.4928 C   0  0  0  0  0  0  0  0  0  0  0  0
   37.2240  -18.0281   34.9457 C   0  0  0  0  0  0  0  0  0  0  0  0
   36.8997  -17.5986   36.6746 S   0  0  0  0  0  0  0  0  0  0  0  0
   34.8159  -12.0449   37.1889 F   0  0  0  0  0  0  0  0  0  0  0  0
   35.3111  -13.3072   37.0822 C   0  0  0  0  0  0  0  0  0  0  0  0
   34.5358  -14.3014   36.5004 C   0  0  0  0  0  0  0  0  0  0  0  0
   35.0090  -15.5833   36.3792 C   0  0  0  0  0  0  0  0  0  0  0  0
   36.2639  -15.9391   36.8256 C   0  0  0  0  0  0  0  0  0  0  0  0
   37.0244  -14.9425   37.4016 C   0  0  0  0  0  0  0  0  0  0  0  0
   36.5664  -13.6439   37.5333 C   0  0  0  0  0  0  0  0  0  0  0  0
 17 18  1  0  0  0
 18 19  2  0  0  0
 19 20  1  0  0  0
 20 21  2  0  0  0
 21 16  1  0  0  0
 16 15  1  0  0  0
 15 14  1  0  0  0
 14 13  1  0  0  0
 13  1  1  0  0  0
  1  2  1  0  0  0
  2  3  1  0  0  0
  3  4  1  0  0  0
  4  7  1  0  0  0
  7  8  2  0  0  0
  8  9  1  0  0  0
  9 10  2  0  0  0
 10 11  1  0  0  0
 11 12  2  0  0  0
  4  5  1  0  0  0
  5  6  1  0  0  0
 21 22  1  0  0  0
 22 23  2  0  0  0
 23 18  1  0  0  0
  6  1  1  0  0  0
 12  7  1  0  0  0
M  END
> <minimizedAffinity>
-6.65450

> <CNNscore>
0.6871120334

> <CNNaffinity>
4.9897408485

> <CNN_VS>
3.4285109043

> <CNNaffinity_variance>
0.8100767136

$$$$
[H]c1nc(N2C([H])([H])C([H])([H])N(C([H])([H])C([H])([H])C([H])([H])Sc3c([H])c([H])c(F)c([H])c3[H])C([H])([H])C2([H])[H])c([H])c([H])c1[H]


 23 25  0  0  0  0  0  0  0  0999 V2000
   33.9685  -19.5732   34.6641 N   0  0  0  0  0  0  0  0  0  0  0  0
   33.2402  -19.1245   35.8252 C   0  0  0  0  0  0  0  0  0  0  0  0
   31.7573  -19.3712   35.7828 C   0  0  0  0  0  0  0  0  0  0  0  0
   31.4090  -20.6771   35.3167 N   0  0  0  0  0  0  0  0  0  0  0  0
   32.2817  -21.3348   34.3791 C   0  0  0  0  0  0  0  0  0  0  0  0
   33.1380  -20.2893   33.7296 C   0  0  0  0  0  0  0  0  0  0  0  0
   30.2172  -21.2917   35.7828 C   0  0  0  0  0  0  0  0  0  0  0  0
   29.8378  -22.5599   35.4079 C   0  0  0  0  0  0  0  0  0  0  0  0
   28.6545  -23.1395   35.8717 C   0  0  0  0  0  0  0  0  0  0  0  0
   27.8408  -22.4426   36.7208 C   0  0  0  0  0  0  0  0  0  0  0  0
   28.2402  -21.1775   37.0821 C   0  0  0  0  0  0  0  0  0  0  0  0
   29.3781  -20.6356   36.6284 N   0  0  0  0  0  0  0  0  0  0  0  0
   34.6910  -18.4895   34.0341 C   0  0  0  0  0  0  0  0  0  0  0  0
   36.1585  -18.8260   33.9954 C   0  0  0  0  0  0  0  0  0  0  0  0
   36.9271  -17.6037   34.4954 C   0  0  0  0  0  0  0  0  0  0  0  0
   36.4880  -17.2797   36.2219 S   0  0  0  0  0  0  0  0  0  0  0  0
   34.3572  -11.7656   36.9322 F   0  0  0  0  0  0  0  0  0  0  0  0
   34.8232  -13.0322   36.7634 C   0  0  0  0  0  0  0  0  0  0  0  0
   36.1686  -13.3022   36.9752 C   0  0  0  0  0  0  0  0  0  0  0  0
   36.6668  -14.5700   36.8128 C   0  0  0  0  0  0  0  0  0  0  0  0
   35.8616  -15.6235   36.4352 C   0  0  0  0  0  0  0  0  0  0  0  0
   34.5268  -15.3424   36.2278 C   0  0  0  0  0  0  0  0  0  0  0  0
   34.0044  -14.0715   36.3862 C   0  0  0  0  0  0  0  0  0  0  0  0
 17 18  1  0  0  0
 18 19  2  0  0  0
 19 20  1  0  0  0
 20 21  2  0  0  0
 21 16  1  0  0  0
 16 15  1  0  0  0
 15 14  1  0  0  0
 14 13  1  0  0  0
 13  1  1  0  0  0
  1  2  1  0  0  0
  2  3  1  0  0  0
  3  4  1  0  0  0
  4  7  1  0  0  0
  7  8  2  0  0  0
  8  9  1  0  0  0
  9 10  2  0  0  0
 10 11  1  0  0  0
 11 12  2  0  0  0
  4  5  1  0  0  0
  5  6  1  0  0  0
 21 22  1  0  0  0
 22 23  2  0  0  0
 23 18  1  0  0  0
  6  1  1  0  0  0
 12  7  1  0  0  0
M  END
> <minimizedAffinity>
-6.74204

> <CNNscore>
0.6711602807

> <CNNaffinity>
4.9512915611

> <CNN_VS>
3.3231103420

> <CNNaffinity_variance>
0.6173928976

$$$$
[H]c1nc(N2C([H])([H])C([H])([H])N(C([H])([H])C([H])([H])C([H])([H])Sc3c([H])c([H])c(F)c([H])c3[H])C([H])([H])C2([H])[H])c([H])c([H])c1[H]


 23 25  0  0  0  0  0  0  0  0999 V2000
   32.6582  -20.0848   35.3739 N   0  0  0  0  0  0  0  0  0  0  0  0
   31.3120  -19.5881   35.2294 C   0  0  0  0  0  0  0  0  0  0  0  0
   30.2287  -20.6075   35.4505 C   0  0  0  0  0  0  0  0  0  0  0  0
   30.4492  -21.4357   36.5948 N   0  0  0  0  0  0  0  0  0  0  0  0
   31.8028  -21.7152   36.9986 C   0  0  0  0  0  0  0  0  0  0  0  0
   32.7006  -21.4518   35.8270 C   0  0  0  0  0  0  0  0  0  0  0  0
   29.3368  -21.9633   37.3016 C   0  0  0  0  0  0  0  0  0  0  0  0
   28.0755  -21.4202   37.2173 C   0  0  0  0  0  0  0  0  0  0  0  0
   26.9984  -21.9509   37.9311 C   0  0  0  0  0  0  0  0  0  0  0  0
   27.1847  -23.0381   38.7387 C   0  0  0  0  0  0  0  0  0  0  0  0
   28.4532  -23.5641   38.8071 C   0  0  0  0  0  0  0  0  0  0  0  0
   29.4760  -23.0434   38.1163 N   0  0  0  0  0  0  0  0  0  0  0  0
   33.4346  -19.8839   34.1697 C   0  0  0  0  0  0  0  0  0  0  0  0
   34.7450  -19.2324   34.5253 C   0  0  0  0  0  0  0  0  0  0  0  0
   34.6557  -17.7617   34.1205 C   0  0  0  0  0  0  0  0  0  0  0  0
   33.9297  -16.8058   35.4761 S   0  0  0  0  0  0  0  0  0  0  0  0
   37.9449  -13.2372   38.0439 F   0  0  0  0  0  0  0  0  0  0  0  0
   37.0176  -14.0341   37.4480 C   0  0  0  0  0  0  0  0  0  0  0  0
   37.0990  -15.4121   37.5981 C   0  0  0  0  0  0  0  0  0  0  0  0
   36.1780  -16.2405   37.0088 C   0  0  0  0  0  0  0  0  0  0  0  0
   35.1397  -15.7469   36.2478 C   0  0  0  0  0  0  0  0  0  0  0  0
   35.0697  -14.3763   36.1062 C   0  0  0  0  0  0  0  0  0  0  0  0
   35.9879  -13.5235   36.6920 C   0  0  0  0  0  0  0  0  0  0  0  0
 17 18  1  0  0  0
 18 19  2  0  0  0
 19 20  1  0  0  0
 20 21  2  0  0  0
 21 16  1  0  0  0
 16 15  1  0  0  0
 15 14  1  0  0  0
 14 13  1  0  0  0
 13  1  1  0  0  0
  1  2  1  0  0  0
  2  3  1  0  0  0
  3  4  1  0  0  0
  4  7  1  0  0  0
  7  8  2  0  0  0
  8  9  1  0  0  0
  9 10  2  0  0  0
 10 11  1  0  0  0
 11 12  2  0  0  0
  4  5  1  0  0  0
  5  6  1  0  0  0
 21 22  1  0  0  0
 22 23  2  0  0  0
 23 18  1  0  0  0
  6  1  1  0  0  0
 12  7  1  0  0  0
M  END
> <minimizedAffinity>
-5.79026

> <CNNscore>
0.5603321791

> <CNNaffinity>
4.5389952660

> <CNN_VS>
2.5433452129

> <CNNaffinity_variance>
0.5123164654

$$$$
[H]c1nc(N2C([H])([H])C([H])([H])N(C([H])([H])C([H])([H])C([H])([H])Sc3c([H])c([H])c(F)c([H])c3[H])C([H])([H])C2([H])[H])c([H])c([H])c1[H]


 23 25  0  0  0  0  0  0  0  0999 V2000
   31.7925  -19.8359   34.4495 N   0  0  0  0  0  0  0  0  0  0  0  0
   32.3288  -20.9178   35.2380 C   0  0  0  0  0  0  0  0  0  0  0  0
   31.5851  -21.2080   36.5125 C   0  0  0  0  0  0  0  0  0  0  0  0
   30.1643  -21.2203   36.3540 N   0  0  0  0  0  0  0  0  0  0  0  0
   29.5717  -20.3855   35.3414 C   0  0  0  0  0  0  0  0  0  0  0  0
   30.5600  -19.3158   34.9846 C   0  0  0  0  0  0  0  0  0  0  0  0
   29.3735  -22.0472   37.1945 C   0  0  0  0  0  0  0  0  0  0  0  0
   29.1156  -23.3683   36.9096 C   0  0  0  0  0  0  0  0  0  0  0  0
   28.3254  -24.1592   37.7470 C   0  0  0  0  0  0  0  0  0  0  0  0
   27.7868  -23.6227   38.8832 C   0  0  0  0  0  0  0  0  0  0  0  0
   28.0582  -22.3011   39.1478 C   0  0  0  0  0  0  0  0  0  0  0  0
   28.8180  -21.5557   38.3344 N   0  0  0  0  0  0  0  0  0  0  0  0
   32.7745  -18.7962   34.2298 C   0  0  0  0  0  0  0  0  0  0  0  0
   34.0943  -19.2268   34.8137 C   0  0  0  0  0  0  0  0  0  0  0  0
   35.1799  -18.3363   34.2109 C   0  0  0  0  0  0  0  0  0  0  0  0
   36.1457  -17.5777   35.5414 S   0  0  0  0  0  0  0  0  0  0  0  0
   34.1072  -12.1573   36.9252 F   0  0  0  0  0  0  0  0  0  0  0  0
   34.5943  -13.3883   36.6129 C   0  0  0  0  0  0  0  0  0  0  0  0
   33.7138  -14.4151   36.2991 C   0  0  0  0  0  0  0  0  0  0  0  0
   34.1762  -15.6666   35.9800 C   0  0  0  0  0  0  0  0  0  0  0  0
   35.5233  -15.9587   35.9569 C   0  0  0  0  0  0  0  0  0  0  0  0
   36.3878  -14.9302   36.2705 C   0  0  0  0  0  0  0  0  0  0  0  0
   35.9425  -13.6614   36.5948 C   0  0  0  0  0  0  0  0  0  0  0  0
 17 18  1  0  0  0
 18 19  2  0  0  0
 19 20  1  0  0  0
 20 21  2  0  0  0
 21 16  1  0  0  0
 16 15  1  0  0  0
 15 14  1  0  0  0
 14 13  1  0  0  0
 13  1  1  0  0  0
  1  2  1  0  0  0
  2  3  1  0  0  0
  3  4  1  0  0  0
  4  7  1  0  0  0
  7  8  2  0  0  0
  8  9  1  0  0  0
  9 10  2  0  0  0
 10 11  1  0  0  0
 11 12  2  0  0  0
  4  5  1  0  0  0
  5  6  1  0  0  0
 21 22  1  0  0  0
 22 23  2  0  0  0
 23 18  1  0  0  0
  6  1  1  0  0  0
 12  7  1  0  0  0
M  END
> <minimizedAffinity>
-5.82855

> <CNNscore>
0.5116835833

> <CNNaffinity>
4.6836457253

> <CNN_VS>
2.3965446949

> <CNNaffinity_variance>
0.9376767278

$$$$
[H]c1nc(N2C([H])([H])C([H])([H])N(C([H])([H])C([H])([H])C([H])([H])Sc3c([H])c([H])c(F)c([H])c3[H])C([H])([H])C2([H])[H])c([H])c([H])c1[H]


 23 25  0  0  0  0  0  0  0  0999 V2000
   32.6377  -20.4366   34.9372 N   0  0  0  0  0  0  0  0  0  0  0  0
   31.8997  -21.6002   34.5116 C   0  0  0  0  0  0  0  0  0  0  0  0
   32.1343  -22.8394   35.3307 C   0  0  0  0  0  0  0  0  0  0  0  0
   32.1294  -22.6011   36.7404 N   0  0  0  0  0  0  0  0  0  0  0  0
   32.5578  -21.3160   37.2285 C   0  0  0  0  0  0  0  0  0  0  0  0
   33.3741  -20.6603   36.1552 C   0  0  0  0  0  0  0  0  0  0  0  0
   31.7078  -23.6304   37.6226 C   0  0  0  0  0  0  0  0  0  0  0  0
   30.9172  -24.6809   37.2172 C   0  0  0  0  0  0  0  0  0  0  0  0
   30.5063  -25.6764   38.1067 C   0  0  0  0  0  0  0  0  0  0  0  0
   30.8907  -25.6210   39.4174 C   0  0  0  0  0  0  0  0  0  0  0  0
   31.6806  -24.5626   39.7998 C   0  0  0  0  0  0  0  0  0  0  0  0
   32.0663  -23.6156   38.9344 N   0  0  0  0  0  0  0  0  0  0  0  0
   33.4770  -19.9187   33.8785 C   0  0  0  0  0  0  0  0  0  0  0  0
   34.7252  -19.3262   34.4778 C   0  0  0  0  0  0  0  0  0  0  0  0
   34.7137  -17.8269   34.1830 C   0  0  0  0  0  0  0  0  0  0  0  0
   33.9993  -16.9406   35.5911 S   0  0  0  0  0  0  0  0  0  0  0  0
   37.8775  -13.0901   37.9540 F   0  0  0  0  0  0  0  0  0  0  0  0
   36.9812  -13.9524   37.4033 C   0  0  0  0  0  0  0  0  0  0  0  0
   37.0950  -15.3133   37.6545 C   0  0  0  0  0  0  0  0  0  0  0  0
   36.2057  -16.2063   37.1129 C   0  0  0  0  0  0  0  0  0  0  0  0
   35.1685  -15.7968   36.3022 C   0  0  0  0  0  0  0  0  0  0  0  0
   35.0661  -14.4424   36.0603 C   0  0  0  0  0  0  0  0  0  0  0  0
   35.9520  -13.5253   36.5965 C   0  0  0  0  0  0  0  0  0  0  0  0
 17 18  1  0  0  0
 18 19  2  0  0  0
 19 20  1  0  0  0
 20 21  2  0  0  0
 21 16  1  0  0  0
 16 15  1  0  0  0
 15 14  1  0  0  0
 14 13  1  0  0  0
 13  1  1  0  0  0
  1  2  1  0  0  0
  2  3  1  0  0  0
  3  4  1  0  0  0
  4  7  1  0  0  0
  7  8  2  0  0  0
  8  9  1  0  0  0
  9 10  2  0  0  0
 10 11  1  0  0  0
 11 12  2  0  0  0
  4  5  1  0  0  0
  5  6  1  0  0  0
 21 22  1  0  0  0
 22 23  2  0  0  0
 23 18  1  0  0  0
  6  1  1  0  0  0
 12  7  1  0  0  0
M  END
> <minimizedAffinity>
-5.08727

> <CNNscore>
0.5022297502

> <CNNaffinity>
4.3911094666

> <CNN_VS>
2.2053458691

> <CNNaffinity_variance>
0.3444201350

$$$$
[H]c1nc(N2C([H])([H])C([H])([H])N(C([H])([H])C([H])([H])C([H])([H])Sc3c([H])c([H])c(F)c([H])c3[H])C([H])([H])C2([H])[H])c([H])c([H])c1[H]


 23 25  0  0  0  0  0  0  0  0999 V2000
   34.3365  -20.7384   36.7354 N   0  0  0  0  0  0  0  0  0  0  0  0
   35.0518  -21.1201   37.9280 C   0  0  0  0  0  0  0  0  0  0  0  0
   34.1897  -21.3876   39.1310 C   0  0  0  0  0  0  0  0  0  0  0  0
   33.0329  -22.1756   38.8402 N   0  0  0  0  0  0  0  0  0  0  0  0
   32.4431  -22.0852   37.5297 C   0  0  0  0  0  0  0  0  0  0  0  0
   32.9067  -20.8063   36.8991 C   0  0  0  0  0  0  0  0  0  0  0  0
   32.4926  -23.0222   39.8436 C   0  0  0  0  0  0  0  0  0  0  0  0
   32.3448  -24.3793   39.6724 C   0  0  0  0  0  0  0  0  0  0  0  0
   31.8004  -25.1903   40.6709 C   0  0  0  0  0  0  0  0  0  0  0  0
   31.3990  -24.6376   41.8551 C   0  0  0  0  0  0  0  0  0  0  0  0
   31.5564  -23.2798   42.0039 C   0  0  0  0  0  0  0  0  0  0  0  0
   32.0803  -22.5156   41.0364 N   0  0  0  0  0  0  0  0  0  0  0  0
   34.7694  -19.4492   36.2415 C   0  0  0  0  0  0  0  0  0  0  0  0
   34.4645  -19.3521   34.7699 C   0  0  0  0  0  0  0  0  0  0  0  0
   34.6657  -17.8966   34.3504 C   0  0  0  0  0  0  0  0  0  0  0  0
   33.9230  -16.8037   35.5884 S   0  0  0  0  0  0  0  0  0  0  0  0
   37.9566  -13.1433   37.9929 F   0  0  0  0  0  0  0  0  0  0  0  0
   37.0251  -13.9616   37.4335 C   0  0  0  0  0  0  0  0  0  0  0  0
   37.1029  -15.3323   37.6409 C   0  0  0  0  0  0  0  0  0  0  0  0
   36.1776  -16.1818   37.0895 C   0  0  0  0  0  0  0  0  0  0  0  0
   35.1384  -15.7172   36.3116 C   0  0  0  0  0  0  0  0  0  0  0  0
   35.0721  -14.3535   36.1129 C   0  0  0  0  0  0  0  0  0  0  0  0
   35.9946  -13.4798   36.6598 C   0  0  0  0  0  0  0  0  0  0  0  0
 17 18  1  0  0  0
 18 19  2  0  0  0
 19 20  1  0  0  0
 20 21  2  0  0  0
 21 16  1  0  0  0
 16 15  1  0  0  0
 15 14  1  0  0  0
 14 13  1  0  0  0
 13  1  1  0  0  0
  1  2  1  0  0  0
  2  3  1  0  0  0
  3  4  1  0  0  0
  4  7  1  0  0  0
  7  8  2  0  0  0
  8  9  1  0  0  0
  9 10  2  0  0  0
 10 11  1  0  0  0
 11 12  2  0  0  0
  4  5  1  0  0  0
  5  6  1  0  0  0
 21 22  1  0  0  0
 22 23  2  0  0  0
 23 18  1  0  0  0
  6  1  1  0  0  0
 12  7  1  0  0  0
M  END
> <minimizedAffinity>
-4.90572

> <CNNscore>
0.4994271994

> <CNNaffinity>
4.3163380623

> <CNN_VS>
2.1556966305

> <CNNaffinity_variance>
0.4559628367

$$$$
[H]c1nc(N2C([H])([H])C([H])([H])N(C([H])([H])C([H])([H])C([H])([H])Sc3c([H])c([H])c(F)c([H])c3[H])C([H])([H])C2([H])[H])c([H])c([H])c1[H]


 23 25  0  0  0  0  0  0  0  0999 V2000
   37.3193  -19.5915   34.7377 N   0  0  0  0  0  0  0  0  0  0  0  0
   38.3039  -19.4928   33.6887 C   0  0  0  0  0  0  0  0  0  0  0  0
   39.5080  -18.6551   34.0205 C   0  0  0  0  0  0  0  0  0  0  0  0
   40.0360  -18.9063   35.3251 N   0  0  0  0  0  0  0  0  0  0  0  0
   39.1380  -19.3320   36.3671 C   0  0  0  0  0  0  0  0  0  0  0  0
   37.7441  -18.9582   35.9602 C   0  0  0  0  0  0  0  0  0  0  0  0
   41.4241  -18.7290   35.5643 C   0  0  0  0  0  0  0  0  0  0  0  0
   41.9492  -18.5823   36.8275 C   0  0  0  0  0  0  0  0  0  0  0  0
   43.3179  -18.3984   37.0368 C   0  0  0  0  0  0  0  0  0  0  0  0
   44.1721  -18.3610   35.9702 C   0  0  0  0  0  0  0  0  0  0  0  0
   43.6252  -18.5100   34.7175 C   0  0  0  0  0  0  0  0  0  0  0  0
   42.3100  -18.6855   34.5334 N   0  0  0  0  0  0  0  0  0  0  0  0
   36.0228  -19.1210   34.3006 C   0  0  0  0  0  0  0  0  0  0  0  0
   35.1754  -18.8064   35.5052 C   0  0  0  0  0  0  0  0  0  0  0  0
   33.9754  -17.9903   35.0267 C   0  0  0  0  0  0  0  0  0  0  0  0
   33.0876  -18.9155   33.7484 S   0  0  0  0  0  0  0  0  0  0  0  0
   29.2627  -22.8023   36.1387 F   0  0  0  0  0  0  0  0  0  0  0  0
   30.1224  -21.8973   35.5984 C   0  0  0  0  0  0  0  0  0  0  0  0
   31.3274  -22.3311   35.0619 C   0  0  0  0  0  0  0  0  0  0  0  0
   32.2138  -21.4413   34.5103 C   0  0  0  0  0  0  0  0  0  0  0  0
   31.9508  -20.0887   34.4641 C   0  0  0  0  0  0  0  0  0  0  0  0
   30.7504  -19.6703   35.0003 C   0  0  0  0  0  0  0  0  0  0  0  0
   29.8428  -20.5508   35.5610 C   0  0  0  0  0  0  0  0  0  0  0  0
 17 18  1  0  0  0
 18 19  2  0  0  0
 19 20  1  0  0  0
 20 21  2  0  0  0
 21 16  1  0  0  0
 16 15  1  0  0  0
 15 14  1  0  0  0
 14 13  1  0  0  0
 13  1  1  0  0  0
  1  2  1  0  0  0
  2  3  1  0  0  0
  3  4  1  0  0  0
  4  7  1  0  0  0
  7  8  2  0  0  0
  8  9  1  0  0  0
  9 10  2  0  0  0
 10 11  1  0  0  0
 11 12  2  0  0  0
  4  5  1  0  0  0
  5  6  1  0  0  0
 21 22  1  0  0  0
 22 23  2  0  0  0
 23 18  1  0  0  0
  6  1  1  0  0  0
 12  7  1  0  0  0
M  END
> <minimizedAffinity>
-4.66602

> <CNNscore>
0.4863065779

> <CNNaffinity>
4.4123086929

> <CNN_VS>
2.1457347870

> <CNNaffinity_variance>
0.5376501679

$$$$
[H]c1nc(N2C([H])([H])C([H])([H])N(C([H])([H])C([H])([H])C([H])([H])Sc3c([H])c([H])c(F)c([H])c3[H])C([H])([H])C2([H])[H])c([H])c([H])c1[H]


 23 25  0  0  0  0  0  0  0  0999 V2000
   33.3345  -19.1664   34.7335 N   0  0  0  0  0  0  0  0  0  0  0  0
   33.3569  -20.5795   35.0208 C   0  0  0  0  0  0  0  0  0  0  0  0
   32.3304  -21.0445   36.0167 C   0  0  0  0  0  0  0  0  0  0  0  0
   31.0304  -20.4916   35.7967 N   0  0  0  0  0  0  0  0  0  0  0  0
   30.9237  -19.1856   35.1997 C   0  0  0  0  0  0  0  0  0  0  0  0
   32.2383  -18.4861   35.3750 C   0  0  0  0  0  0  0  0  0  0  0  0
   29.8810  -21.2357   36.1715 C   0  0  0  0  0  0  0  0  0  0  0  0
   29.5158  -22.4063   35.5477 C   0  0  0  0  0  0  0  0  0  0  0  0
   28.3738  -23.1154   35.9276 C   0  0  0  0  0  0  0  0  0  0  0  0
   27.5876  -22.6484   36.9437 C   0  0  0  0  0  0  0  0  0  0  0  0
   27.9720  -21.4771   37.5526 C   0  0  0  0  0  0  0  0  0  0  0  0
   29.0702  -20.8086   37.1765 N   0  0  0  0  0  0  0  0  0  0  0  0
   34.6078  -18.5420   35.0201 C   0  0  0  0  0  0  0  0  0  0  0  0
   35.5533  -18.7912   33.8746 C   0  0  0  0  0  0  0  0  0  0  0  0
   36.9222  -18.2441   34.2767 C   0  0  0  0  0  0  0  0  0  0  0  0
   38.2081  -19.4267   33.8009 S   0  0  0  0  0  0  0  0  0  0  0  0
   43.4913  -17.9591   36.1215 F   0  0  0  0  0  0  0  0  0  0  0  0
   42.2929  -18.2913   35.5704 C   0  0  0  0  0  0  0  0  0  0  0  0
   41.2406  -18.6695   36.3934 C   0  0  0  0  0  0  0  0  0  0  0  0
   40.0208  -19.0097   35.8658 C   0  0  0  0  0  0  0  0  0  0  0  0
   39.7870  -18.9917   34.5072 C   0  0  0  0  0  0  0  0  0  0  0  0
   40.8405  -18.6142   33.7002 C   0  0  0  0  0  0  0  0  0  0  0  0
   42.0780  -18.2674   34.2118 C   0  0  0  0  0  0  0  0  0  0  0  0
 17 18  1  0  0  0
 18 19  2  0  0  0
 19 20  1  0  0  0
 20 21  2  0  0  0
 21 16  1  0  0  0
 16 15  1  0  0  0
 15 14  1  0  0  0
 14 13  1  0  0  0
 13  1  1  0  0  0
  1  2  1  0  0  0
  2  3  1  0  0  0
  3  4  1  0  0  0
  4  7  1  0  0  0
  7  8  2  0  0  0
  8  9  1  0  0  0
  9 10  2  0  0  0
 10 11  1  0  0  0
 11 12  2  0  0  0
  4  5  1  0  0  0
  5  6  1  0  0  0
 21 22  1  0  0  0
 22 23  2  0  0  0
 23 18  1  0  0  0
  6  1  1  0  0  0
 12  7  1  0  0  0
M  END
> <minimizedAffinity>
-5.34582

> <CNNscore>
0.4729452729

> <CNNaffinity>
4.2989344597

> <CNN_VS>
2.0331606865

> <CNNaffinity_variance>
0.5687273741

$$$$
[H]c1nc(N2C([H])([H])C([H])([H])N(C([H])([H])C([H])([H])C([H])([H])Sc3c([H])c([H])c(F)c([H])c3[H])C([H])([H])C2([H])[H])c([H])c([H])c1[H]


 23 25  0  0  0  0  0  0  0  0999 V2000
   35.5384  -19.6685   36.6434 N   0  0  0  0  0  0  0  0  0  0  0  0
   35.6688  -18.8501   37.8236 C   0  0  0  0  0  0  0  0  0  0  0  0
   36.1315  -17.4409   37.5748 C   0  0  0  0  0  0  0  0  0  0  0  0
   35.4765  -16.8116   36.4707 N   0  0  0  0  0  0  0  0  0  0  0  0
   35.0191  -17.6295   35.3774 C   0  0  0  0  0  0  0  0  0  0  0  0
   35.7639  -18.9299   35.4270 C   0  0  0  0  0  0  0  0  0  0  0  0
   35.2951  -15.4036   36.4746 C   0  0  0  0  0  0  0  0  0  0  0  0
   36.3233  -14.5212   36.7134 C   0  0  0  0  0  0  0  0  0  0  0  0
   36.1177  -13.1396   36.7226 C   0  0  0  0  0  0  0  0  0  0  0  0
   34.8690  -12.6342   36.4899 C   0  0  0  0  0  0  0  0  0  0  0  0
   33.8572  -13.5346   36.2534 C   0  0  0  0  0  0  0  0  0  0  0  0
   34.0706  -14.8570   36.2481 N   0  0  0  0  0  0  0  0  0  0  0  0
   36.3614  -20.8558   36.7221 C   0  0  0  0  0  0  0  0  0  0  0  0
   35.8045  -21.7784   37.7742 C   0  0  0  0  0  0  0  0  0  0  0  0
   34.6898  -22.5993   37.1271 C   0  0  0  0  0  0  0  0  0  0  0  0
   33.1099  -22.1986   37.9156 S   0  0  0  0  0  0  0  0  0  0  0  0
   29.4955  -19.2258   34.2347 F   0  0  0  0  0  0  0  0  0  0  0  0
   30.3037  -19.9184   35.0816 C   0  0  0  0  0  0  0  0  0  0  0  0
   31.6503  -19.5908   35.1663 C   0  0  0  0  0  0  0  0  0  0  0  0
   32.4891  -20.2718   36.0115 C   0  0  0  0  0  0  0  0  0  0  0  0
   32.0372  -21.3028   36.8075 C   0  0  0  0  0  0  0  0  0  0  0  0
   30.6975  -21.6188   36.7142 C   0  0  0  0  0  0  0  0  0  0  0  0
   29.8348  -20.9447   35.8687 C   0  0  0  0  0  0  0  0  0  0  0  0
 17 18  1  0  0  0
 18 19  2  0  0  0
 19 20  1  0  0  0
 20 21  2  0  0  0
 21 16  1  0  0  0
 16 15  1  0  0  0
 15 14  1  0  0  0
 14 13  1  0  0  0
 13  1  1  0  0  0
  1  2  1  0  0  0
  2  3  1  0  0  0
  3  4  1  0  0  0
  4  7  1  0  0  0
  7  8  2  0  0  0
  8  9  1  0  0  0
  9 10  2  0  0  0
 10 11  1  0  0  0
 11 12  2  0  0  0
  4  5  1  0  0  0
  5  6  1  0  0  0
 21 22  1  0  0  0
 22 23  2  0  0  0
 23 18  1  0  0  0
  6  1  1  0  0  0
 12  7  1  0  0  0
M  END
> <minimizedAffinity>
-5.55744

> <CNNscore>
0.4550116360

> <CNNaffinity>
4.7185325623

> <CNN_VS>
2.1469871998

> <CNNaffinity_variance>
0.6309788823

$$$$
[H]c1c([H])c([H])c2c(c1[H])[C@]([H])(c1c([H])c([H])c(F)c([H])c1[H])C([H])([H])C([H])([H])[C@]2([H])N([H])C([H])([H])[H]


 20 22  0  0  0  0  0  0  0  0999 V2000
   37.6783  -18.2002   35.0295 C   0  0  0  0  0  0  0  0  0  0  0  0
   36.7500  -17.7699   33.9435 C   0  0  0  0  0  0  0  0  0  0  0  0
   35.5862  -18.7248   33.8164 C   0  0  0  0  0  0  0  0  0  0  0  0
   34.7807  -18.5635   35.1142 C   0  0  0  0  0  0  0  0  0  0  0  0
   35.6533  -19.1748   36.1636 C   0  0  0  0  0  0  0  0  0  0  0  0
   35.0919  -19.9099   37.1712 C   0  0  0  0  0  0  0  0  0  0  0  0
   35.9170  -20.4662   38.1288 C   0  0  0  0  0  0  0  0  0  0  0  0
   37.2730  -20.3072   38.1039 C   0  0  0  0  0  0  0  0  0  0  0  0
   37.8102  -19.5545   37.0664 C   0  0  0  0  0  0  0  0  0  0  0  0
   37.0169  -18.9856   36.0948 C   0  0  0  0  0  0  0  0  0  0  0  0
   33.4443  -19.1399   35.0382 C   0  0  0  0  0  0  0  0  0  0  0  0
   32.3667  -18.4518   35.5468 C   0  0  0  0  0  0  0  0  0  0  0  0
   31.0868  -18.9609   35.4946 C   0  0  0  0  0  0  0  0  0  0  0  0
   30.8623  -20.1891   34.9221 C   0  0  0  0  0  0  0  0  0  0  0  0
   29.5918  -20.6840   34.8764 F   0  0  0  0  0  0  0  0  0  0  0  0
   31.9142  -20.8956   34.4083 C   0  0  0  0  0  0  0  0  0  0  0  0
   33.2097  -20.3702   34.4659 C   0  0  0  0  0  0  0  0  0  0  0  0
   38.6346  -19.9572   33.6837 C   0  0  0  0  0  0  0  0  0  0  0  0
   38.8888  -18.8297   34.5365 N   0  0  0  0  0  0  0  0  0  0  0  0
   39.3938  -18.1072   33.9763 H   0  0  0  0  0  0  0  0  0  0  0  0
 18 19  1  0  0  0
 19  1  1  0  0  0
  1  2  1  0  0  0
  2  3  1  0  0  0
  3  4  1  0  0  0
  4 11  1  0  0  0
 11 12  2  0  0  0
 12 13  1  0  0  0
 13 14  2  0  0  0
 14 15  1  0  0  0
 14 16  1  0  0  0
 16 17  2  0  0  0
  4  5  1  0  0  0
  5  6  2  0  0  0
  6  7  1  0  0  0
  7  8  2  0  0  0
  8  9  1  0  0  0
  9 10  2  0  0  0
 10  1  1  0  0  0
 17 11  1  0  0  0
 10  5  1  0  0  0
 19 20  1  0  0  0
M  END
> <minimizedAffinity>
-5.39584

> <CNNscore>
0.7568838596

> <CNNaffinity>
4.3463544846

> <CNN_VS>
3.2896854877

> <CNNaffinity_variance>
0.3295416236

$$$$
[H]c1c([H])c([H])c2c(c1[H])[C@]([H])(c1c([H])c([H])c(F)c([H])c1[H])C([H])([H])C([H])([H])[C@]2([H])N([H])C([H])([H])[H]


 20 22  0  0  0  0  0  0  0  0999 V2000
   33.3610  -20.3084   34.9906 C   0  0  0  0  0  0  0  0  0  0  0  0
   33.1201  -19.1530   34.0777 C   0  0  0  0  0  0  0  0  0  0  0  0
   33.1622  -17.8467   34.8353 C   0  0  0  0  0  0  0  0  0  0  0  0
   34.6180  -17.6893   35.2993 C   0  0  0  0  0  0  0  0  0  0  0  0
   34.7807  -18.7381   36.3527 C   0  0  0  0  0  0  0  0  0  0  0  0
   35.5232  -18.4705   37.4697 C   0  0  0  0  0  0  0  0  0  0  0  0
   35.6590  -19.4536   38.4301 C   0  0  0  0  0  0  0  0  0  0  0  0
   35.0777  -20.6826   38.3024 C   0  0  0  0  0  0  0  0  0  0  0  0
   34.3302  -20.9210   37.1552 C   0  0  0  0  0  0  0  0  0  0  0  0
   34.1741  -19.9634   36.1775 C   0  0  0  0  0  0  0  0  0  0  0  0
   34.9375  -16.3393   35.7458 C   0  0  0  0  0  0  0  0  0  0  0  0
   33.9272  -15.4632   36.0701 C   0  0  0  0  0  0  0  0  0  0  0  0
   34.1862  -14.1783   36.4969 C   0  0  0  0  0  0  0  0  0  0  0  0
   35.4844  -13.7432   36.6073 C   0  0  0  0  0  0  0  0  0  0  0  0
   35.7295  -12.4694   37.0298 F   0  0  0  0  0  0  0  0  0  0  0  0
   36.5088  -14.5920   36.2919 C   0  0  0  0  0  0  0  0  0  0  0  0
   36.2356  -15.8945   35.8597 C   0  0  0  0  0  0  0  0  0  0  0  0
   31.9776  -22.2350   34.5578 C   0  0  0  0  0  0  0  0  0  0  0  0
   32.1526  -21.0363   35.3294 N   0  0  0  0  0  0  0  0  0  0  0  0
   32.2398  -21.3076   36.3342 H   0  0  0  0  0  0  0  0  0  0  0  0
 18 19  1  0  0  0
 19  1  1  0  0  0
  1  2  1  0  0  0
  2  3  1  0  0  0
  3  4  1  0  0  0
  4 11  1  0  0  0
 11 12  2  0  0  0
 12 13  1  0  0  0
 13 14  2  0  0  0
 14 15  1  0  0  0
 14 16  1  0  0  0
 16 17  2  0  0  0
  4  5  1  0  0  0
  5  6  2  0  0  0
  6  7  1  0  0  0
  7  8  2  0  0  0
  8  9  1  0  0  0
  9 10  2  0  0  0
 10  1  1  0  0  0
 17 11  1  0  0  0
 10  5  1  0  0  0
 19 20  1  0  0  0
M  END
> <minimizedAffinity>
-6.36098

> <CNNscore>
0.7194852829

> <CNNaffinity>
4.3555703163

> <CNN_VS>
3.1337687969

> <CNNaffinity_variance>
0.4658362269

$$$$
[H]c1c([H])c([H])c2c(c1[H])[C@]([H])(c1c([H])c([H])c(F)c([H])c1[H])C([H])([H])C([H])([H])[C@]2([H])N([H])C([H])([H])[H]


 20 22  0  0  0  0  0  0  0  0999 V2000
   33.3488  -20.3356   34.9912 C   0  0  0  0  0  0  0  0  0  0  0  0
   33.0813  -19.1790   34.0874 C   0  0  0  0  0  0  0  0  0  0  0  0
   33.1184  -17.8758   34.8507 C   0  0  0  0  0  0  0  0  0  0  0  0
   34.5785  -17.7030   35.2951 C   0  0  0  0  0  0  0  0  0  0  0  0
   34.7685  -18.7547   36.3410 C   0  0  0  0  0  0  0  0  0  0  0  0
   35.5233  -18.4834   37.4489 C   0  0  0  0  0  0  0  0  0  0  0  0
   35.6843  -19.4693   38.4026 C   0  0  0  0  0  0  0  0  0  0  0  0
   35.1160  -20.7045   38.2770 C   0  0  0  0  0  0  0  0  0  0  0  0
   34.3555  -20.9465   37.1392 C   0  0  0  0  0  0  0  0  0  0  0  0
   34.1742  -19.9864   36.1684 C   0  0  0  0  0  0  0  0  0  0  0  0
   34.8880  -16.3514   35.7436 C   0  0  0  0  0  0  0  0  0  0  0  0
   36.1974  -15.9389   35.8371 C   0  0  0  0  0  0  0  0  0  0  0  0
   36.5331  -14.6693   36.2563 C   0  0  0  0  0  0  0  0  0  0  0  0
   35.5448  -13.7774   36.5945 C   0  0  0  0  0  0  0  0  0  0  0  0
   35.8881  -12.5237   37.0089 F   0  0  0  0  0  0  0  0  0  0  0  0
   34.2346  -14.1595   36.5112 C   0  0  0  0  0  0  0  0  0  0  0  0
   33.9040  -15.4504   36.0845 C   0  0  0  0  0  0  0  0  0  0  0  0
   31.9715  -22.2656   34.5541 C   0  0  0  0  0  0  0  0  0  0  0  0
   32.1540  -21.0796   35.3434 N   0  0  0  0  0  0  0  0  0  0  0  0
   32.2658  -21.3682   36.3409 H   0  0  0  0  0  0  0  0  0  0  0  0
 18 19  1  0  0  0
 19  1  1  0  0  0
  1  2  1  0  0  0
  2  3  1  0  0  0
  3  4  1  0  0  0
  4 11  1  0  0  0
 11 12  2  0  0  0
 12 13  1  0  0  0
 13 14  2  0  0  0
 14 15  1  0  0  0
 14 16  1  0  0  0
 16 17  2  0  0  0
  4  5  1  0  0  0
  5  6  2  0  0  0
  6  7  1  0  0  0
  7  8  2  0  0  0
  8  9  1  0  0  0
  9 10  2  0  0  0
 10  1  1  0  0  0
 17 11  1  0  0  0
 10  5  1  0  0  0
 19 20  1  0  0  0
M  END
> <minimizedAffinity>
-6.32064

> <CNNscore>
0.7164431810

> <CNNaffinity>
4.3491034508

> <CNN_VS>
3.1158854961

> <CNNaffinity_variance>
0.4649314284

$$$$
[H]c1c([H])c([H])c2c(c1[H])[C@]([H])(c1c([H])c([H])c(F)c([H])c1[H])C([H])([H])C([H])([H])[C@]2([H])N([H])C([H])([H])[H]


 20 22  0  0  0  0  0  0  0  0999 V2000
   37.2901  -17.9523   35.4013 C   0  0  0  0  0  0  0  0  0  0  0  0
   36.9545  -19.3699   35.0783 C   0  0  0  0  0  0  0  0  0  0  0  0
   35.6065  -19.7496   35.6448 C   0  0  0  0  0  0  0  0  0  0  0  0
   34.5834  -18.9115   34.8637 C   0  0  0  0  0  0  0  0  0  0  0  0
   34.8118  -17.5145   35.3458 C   0  0  0  0  0  0  0  0  0  0  0  0
   33.7463  -16.6785   35.5371 C   0  0  0  0  0  0  0  0  0  0  0  0
   33.9807  -15.3929   35.9840 C   0  0  0  0  0  0  0  0  0  0  0  0
   35.2389  -14.9286   36.2411 C   0  0  0  0  0  0  0  0  0  0  0  0
   36.2985  -15.8043   36.0362 C   0  0  0  0  0  0  0  0  0  0  0  0
   36.1009  -17.0928   35.5913 C   0  0  0  0  0  0  0  0  0  0  0  0
   33.2130  -19.3816   35.0216 C   0  0  0  0  0  0  0  0  0  0  0  0
   32.8758  -20.1762   36.0932 C   0  0  0  0  0  0  0  0  0  0  0  0
   31.5917  -20.6414   36.2796 C   0  0  0  0  0  0  0  0  0  0  0  0
   30.6079  -20.3122   35.3795 C   0  0  0  0  0  0  0  0  0  0  0  0
   29.3405  -20.7786   35.5731 F   0  0  0  0  0  0  0  0  0  0  0  0
   30.9137  -19.5239   34.3050 C   0  0  0  0  0  0  0  0  0  0  0  0
   32.2202  -19.0566   34.1245 C   0  0  0  0  0  0  0  0  0  0  0  0
   39.1990  -18.9025   36.5266 C   0  0  0  0  0  0  0  0  0  0  0  0
   38.2566  -17.8197   36.4752 N   0  0  0  0  0  0  0  0  0  0  0  0
   38.7859  -16.9380   36.2927 H   0  0  0  0  0  0  0  0  0  0  0  0
 18 19  1  0  0  0
 19  1  1  0  0  0
  1  2  1  0  0  0
  2  3  1  0  0  0
  3  4  1  0  0  0
  4 11  1  0  0  0
 11 12  2  0  0  0
 12 13  1  0  0  0
 13 14  2  0  0  0
 14 15  1  0  0  0
 14 16  1  0  0  0
 16 17  2  0  0  0
  4  5  1  0  0  0
  5  6  2  0  0  0
  6  7  1  0  0  0
  7  8  2  0  0  0
  8  9  1  0  0  0
  9 10  2  0  0  0
 10  1  1  0  0  0
 17 11  1  0  0  0
 10  5  1  0  0  0
 19 20  1  0  0  0
M  END
> <minimizedAffinity>
-6.24089

> <CNNscore>
0.6885852218

> <CNNaffinity>
4.4022593498

> <CNN_VS>
3.0313308239

> <CNNaffinity_variance>
0.3686594367

$$$$
[H]c1c([H])c([H])c2c(c1[H])[C@]([H])(c1c([H])c([H])c(F)c([H])c1[H])C([H])([H])C([H])([H])[C@]2([H])N([H])C([H])([H])[H]


 20 22  0  0  0  0  0  0  0  0999 V2000
   33.2485  -18.6366   34.7014 C   0  0  0  0  0  0  0  0  0  0  0  0
   34.5715  -19.0135   35.2793 C   0  0  0  0  0  0  0  0  0  0  0  0
   34.4046  -19.6764   36.6265 C   0  0  0  0  0  0  0  0  0  0  0  0
   33.7011  -21.0117   36.3412 C   0  0  0  0  0  0  0  0  0  0  0  0
   32.3146  -20.6163   35.9445 C   0  0  0  0  0  0  0  0  0  0  0  0
   31.2494  -21.3713   36.3519 C   0  0  0  0  0  0  0  0  0  0  0  0
   29.9777  -20.9867   35.9747 C   0  0  0  0  0  0  0  0  0  0  0  0
   29.7481  -19.8792   35.2095 C   0  0  0  0  0  0  0  0  0  0  0  0
   30.8528  -19.1349   34.8130 C   0  0  0  0  0  0  0  0  0  0  0  0
   32.1346  -19.4896   35.1711 C   0  0  0  0  0  0  0  0  0  0  0  0
   33.7596  -21.9440   37.4598 C   0  0  0  0  0  0  0  0  0  0  0  0
   33.6992  -21.4752   38.7520 C   0  0  0  0  0  0  0  0  0  0  0  0
   33.7507  -22.3230   39.8378 C   0  0  0  0  0  0  0  0  0  0  0  0
   33.8658  -23.6776   39.6425 C   0  0  0  0  0  0  0  0  0  0  0  0
   33.9168  -24.5076   40.7241 F   0  0  0  0  0  0  0  0  0  0  0  0
   33.9280  -24.1722   38.3694 C   0  0  0  0  0  0  0  0  0  0  0  0
   33.8748  -23.3036   37.2738 C   0  0  0  0  0  0  0  0  0  0  0  0
   33.9406  -16.4928   35.5603 C   0  0  0  0  0  0  0  0  0  0  0  0
   32.9555  -17.2198   34.8093 N   0  0  0  0  0  0  0  0  0  0  0  0
   32.9467  -16.8421   33.8356 H   0  0  0  0  0  0  0  0  0  0  0  0
 18 19  1  0  0  0
 19  1  1  0  0  0
  1  2  1  0  0  0
  2  3  1  0  0  0
  3  4  1  0  0  0
  4 11  1  0  0  0
 11 12  2  0  0  0
 12 13  1  0  0  0
 13 14  2  0  0  0
 14 15  1  0  0  0
 14 16  1  0  0  0
 16 17  2  0  0  0
  4  5  1  0  0  0
  5  6  2  0  0  0
  6  7  1  0  0  0
  7  8  2  0  0  0
  8  9  1  0  0  0
  9 10  2  0  0  0
 10  1  1  0  0  0
 17 11  1  0  0  0
 10  5  1  0  0  0
 19 20  1  0  0  0
M  END
> <minimizedAffinity>
-4.36190

> <CNNscore>
0.6783646345

> <CNNaffinity>
4.0865945816

> <CNN_VS>
2.7722012997

> <CNNaffinity_variance>
0.3511411548

$$$$
[H]c1c([H])c([H])c2c(c1[H])[C@]([H])(c1c([H])c([H])c(F)c([H])c1[H])C([H])([H])C([H])([H])[C@]2([H])N([H])C([H])([H])[H]


 20 22  0  0  0  0  0  0  0  0999 V2000
   35.0218  -19.0808   35.0426 C   0  0  0  0  0  0  0  0  0  0  0  0
   33.9923  -19.0661   33.9627 C   0  0  0  0  0  0  0  0  0  0  0  0
   33.1228  -20.2998   34.0271 C   0  0  0  0  0  0  0  0  0  0  0  0
   32.3278  -20.1724   35.3351 C   0  0  0  0  0  0  0  0  0  0  0  0
   33.3511  -20.3797   36.4057 C   0  0  0  0  0  0  0  0  0  0  0  0
   33.0246  -21.0856   37.5308 C   0  0  0  0  0  0  0  0  0  0  0  0
   33.9859  -21.2657   38.5060 C   0  0  0  0  0  0  0  0  0  0  0  0
   35.2498  -20.7633   38.3852 C   0  0  0  0  0  0  0  0  0  0  0  0
   35.5477  -20.0511   37.2294 C   0  0  0  0  0  0  0  0  0  0  0  0
   34.6135  -19.8526   36.2370 C   0  0  0  0  0  0  0  0  0  0  0  0
   31.1920  -21.0826   35.4099 C   0  0  0  0  0  0  0  0  0  0  0  0
   29.9493  -20.6070   35.7604 C   0  0  0  0  0  0  0  0  0  0  0  0
   28.8493  -21.4338   35.8423 C   0  0  0  0  0  0  0  0  0  0  0  0
   28.9794  -22.7737   35.5696 C   0  0  0  0  0  0  0  0  0  0  0  0
   27.8845  -23.5832   35.6544 F   0  0  0  0  0  0  0  0  0  0  0  0
   30.2023  -23.2745   35.2186 C   0  0  0  0  0  0  0  0  0  0  0  0
   31.3128  -22.4271   35.1381 C   0  0  0  0  0  0  0  0  0  0  0  0
   37.1238  -18.3007   34.1560 C   0  0  0  0  0  0  0  0  0  0  0  0
   36.3469  -19.4355   34.5702 N   0  0  0  0  0  0  0  0  0  0  0  0
   36.8380  -19.8889   35.3727 H   0  0  0  0  0  0  0  0  0  0  0  0
 18 19  1  0  0  0
 19  1  1  0  0  0
  1  2  1  0  0  0
  2  3  1  0  0  0
  3  4  1  0  0  0
  4 11  1  0  0  0
 11 12  2  0  0  0
 12 13  1  0  0  0
 13 14  2  0  0  0
 14 15  1  0  0  0
 14 16  1  0  0  0
 16 17  2  0  0  0
  4  5  1  0  0  0
  5  6  2  0  0  0
  6  7  1  0  0  0
  7  8  2  0  0  0
  8  9  1  0  0  0
  9 10  2  0  0  0
 10  1  1  0  0  0
 17 11  1  0  0  0
 10  5  1  0  0  0
 19 20  1  0  0  0
M  END
> <minimizedAffinity>
-5.10152

> <CNNscore>
0.6646261811

> <CNNaffinity>
4.0919518471

> <CNN_VS>
2.7196183205

> <CNNaffinity_variance>
0.3058047295

$$$$
[H]c1c([H])c([H])c2c(c1[H])[C@]([H])(c1c([H])c([H])c(F)c([H])c1[H])C([H])([H])C([H])([H])[C@]2([H])N([H])C([H])([H])[H]


 20 22  0  0  0  0  0  0  0  0999 V2000
   37.6031  -20.4545   38.5129 C   0  0  0  0  0  0  0  0  0  0  0  0
   37.7054  -21.4569   39.6134 C   0  0  0  0  0  0  0  0  0  0  0  0
   38.6224  -22.5935   39.2267 C   0  0  0  0  0  0  0  0  0  0  0  0
   40.0234  -21.9723   39.1240 C   0  0  0  0  0  0  0  0  0  0  0  0
   39.9538  -21.1151   37.9007 C   0  0  0  0  0  0  0  0  0  0  0  0
   41.0305  -21.0402   37.0606 C   0  0  0  0  0  0  0  0  0  0  0  0
   40.9434  -20.2432   35.9361 C   0  0  0  0  0  0  0  0  0  0  0  0
   39.8198  -19.5281   35.6348 C   0  0  0  0  0  0  0  0  0  0  0  0
   38.7444  -19.6270   36.5097 C   0  0  0  0  0  0  0  0  0  0  0  0
   38.7970  -20.4122   37.6401 C   0  0  0  0  0  0  0  0  0  0  0  0
   41.0923  -22.9626   39.0996 C   0  0  0  0  0  0  0  0  0  0  0  0
   41.7617  -23.2834   40.2582 C   0  0  0  0  0  0  0  0  0  0  0  0
   42.7779  -24.2145   40.2785 C   0  0  0  0  0  0  0  0  0  0  0  0
   43.1461  -24.8501   39.1179 C   0  0  0  0  0  0  0  0  0  0  0  0
   44.1537  -25.7694   39.1491 F   0  0  0  0  0  0  0  0  0  0  0  0
   42.4985  -24.5516   37.9513 C   0  0  0  0  0  0  0  0  0  0  0  0
   41.4681  -23.6050   37.9410 C   0  0  0  0  0  0  0  0  0  0  0  0
   36.4517  -19.9750   36.4496 C   0  0  0  0  0  0  0  0  0  0  0  0
   36.3632  -20.5450   37.7650 N   0  0  0  0  0  0  0  0  0  0  0  0
   36.1498  -21.5624   37.6636 H   0  0  0  0  0  0  0  0  0  0  0  0
 18 19  1  0  0  0
 19  1  1  0  0  0
  1  2  1  0  0  0
  2  3  1  0  0  0
  3  4  1  0  0  0
  4 11  1  0  0  0
 11 12  2  0  0  0
 12 13  1  0  0  0
 13 14  2  0  0  0
 14 15  1  0  0  0
 14 16  1  0  0  0
 16 17  2  0  0  0
  4  5  1  0  0  0
  5  6  2  0  0  0
  6  7  1  0  0  0
  7  8  2  0  0  0
  8  9  1  0  0  0
  9 10  2  0  0  0
 10  1  1  0  0  0
 17 11  1  0  0  0
 10  5  1  0  0  0
 19 20  1  0  0  0
M  END
> <minimizedAffinity>
-1.91285

> <CNNscore>
0.6360605955

> <CNNaffinity>
4.0803475380

> <CNN_VS>
2.5953483582

> <CNNaffinity_variance>
0.2434692085

$$$$
[H]c1c([H])c([H])c2c(c1[H])[C@]([H])(c1c([H])c([H])c(F)c([H])c1[H])C([H])([H])C([H])([H])[C@]2([H])N([H])C([H])([H])[H]


 20 22  0  0  0  0  0  0  0  0999 V2000
   39.9187  -19.1487   34.8500 C   0  0  0  0  0  0  0  0  0  0  0  0
   39.2325  -18.4865   33.7024 C   0  0  0  0  0  0  0  0  0  0  0  0
   37.7881  -18.9199   33.6123 C   0  0  0  0  0  0  0  0  0  0  0  0
   37.1097  -18.3461   34.8652 C   0  0  0  0  0  0  0  0  0  0  0  0
   37.6738  -19.1557   35.9888 C   0  0  0  0  0  0  0  0  0  0  0  0
   36.8697  -19.5240   37.0321 C   0  0  0  0  0  0  0  0  0  0  0  0
   37.4117  -20.2726   38.0584 C   0  0  0  0  0  0  0  0  0  0  0  0
   38.7219  -20.6571   38.0668 C   0  0  0  0  0  0  0  0  0  0  0  0
   39.5107  -20.2659   36.9914 C   0  0  0  0  0  0  0  0  0  0  0  0
   39.0029  -19.5192   35.9513 C   0  0  0  0  0  0  0  0  0  0  0  0
   35.6544  -18.3608   34.7901 C   0  0  0  0  0  0  0  0  0  0  0  0
   35.0097  -19.3615   34.1000 C   0  0  0  0  0  0  0  0  0  0  0  0
   33.6354  -19.4125   34.0051 C   0  0  0  0  0  0  0  0  0  0  0  0
   32.8720  -18.4445   34.6106 C   0  0  0  0  0  0  0  0  0  0  0  0
   31.5127  -18.5040   34.5098 F   0  0  0  0  0  0  0  0  0  0  0  0
   33.4853  -17.4378   35.3034 C   0  0  0  0  0  0  0  0  0  0  0  0
   34.8809  -17.3948   35.3940 C   0  0  0  0  0  0  0  0  0  0  0  0
   41.2403  -20.1349   33.0910 C   0  0  0  0  0  0  0  0  0  0  0  0
   40.7869  -20.2401   34.4499 N   0  0  0  0  0  0  0  0  0  0  0  0
   41.6230  -20.2003   35.0744 H   0  0  0  0  0  0  0  0  0  0  0  0
 18 19  1  0  0  0
 19  1  1  0  0  0
  1  2  1  0  0  0
  2  3  1  0  0  0
  3  4  1  0  0  0
  4 11  1  0  0  0
 11 12  2  0  0  0
 12 13  1  0  0  0
 13 14  2  0  0  0
 14 15  1  0  0  0
 14 16  1  0  0  0
 16 17  2  0  0  0
  4  5  1  0  0  0
  5  6  2  0  0  0
  6  7  1  0  0  0
  7  8  2  0  0  0
  8  9  1  0  0  0
  9 10  2  0  0  0
 10  1  1  0  0  0
 17 11  1  0  0  0
 10  5  1  0  0  0
 19 20  1  0  0  0
M  END
> <minimizedAffinity>
-5.25468

> <CNNscore>
0.5811589360

> <CNNaffinity>
4.0711069107

> <CNN_VS>
2.3659601212

> <CNNaffinity_variance>
0.2494851351

$$$$
[H]c1c([H])c([H])c2c(c1[H])[C@]([H])(c1c([H])c([H])c(F)c([H])c1[H])C([H])([H])C([H])([H])[C@]2([H])N([H])C([H])([H])[H]


 20 22  0  0  0  0  0  0  0  0999 V2000
   33.4109  -18.0476   35.8316 C   0  0  0  0  0  0  0  0  0  0  0  0
   33.7829  -19.4859   35.9711 C   0  0  0  0  0  0  0  0  0  0  0  0
   35.2659  -19.6840   35.7625 C   0  0  0  0  0  0  0  0  0  0  0  0
   35.9436  -18.9819   36.9487 C   0  0  0  0  0  0  0  0  0  0  0  0
   35.7202  -17.5266   36.6874 C   0  0  0  0  0  0  0  0  0  0  0  0
   36.7083  -16.6250   36.9729 C   0  0  0  0  0  0  0  0  0  0  0  0
   36.4806  -15.2861   36.7224 C   0  0  0  0  0  0  0  0  0  0  0  0
   35.3034  -14.8323   36.1998 C   0  0  0  0  0  0  0  0  0  0  0  0
   34.3210  -15.7752   35.9214 C   0  0  0  0  0  0  0  0  0  0  0  0
   34.5145  -17.1181   36.1588 C   0  0  0  0  0  0  0  0  0  0  0  0
   37.3436  -19.3515   37.1134 C   0  0  0  0  0  0  0  0  0  0  0  0
   37.7026  -20.2925   38.0510 C   0  0  0  0  0  0  0  0  0  0  0  0
   39.0149  -20.6706   38.2383 C   0  0  0  0  0  0  0  0  0  0  0  0
   40.0057  -20.1017   37.4759 C   0  0  0  0  0  0  0  0  0  0  0  0
   41.3013  -20.4825   37.6700 F   0  0  0  0  0  0  0  0  0  0  0  0
   39.6786  -19.1637   36.5364 C   0  0  0  0  0  0  0  0  0  0  0  0
   38.3436  -18.7867   36.3537 C   0  0  0  0  0  0  0  0  0  0  0  0
   32.1092  -18.8668   33.9749 C   0  0  0  0  0  0  0  0  0  0  0  0
   32.7720  -17.7381   34.5663 N   0  0  0  0  0  0  0  0  0  0  0  0
   32.0524  -17.0081   34.7664 H   0  0  0  0  0  0  0  0  0  0  0  0
 18 19  1  0  0  0
 19  1  1  0  0  0
  1  2  1  0  0  0
  2  3  1  0  0  0
  3  4  1  0  0  0
  4 11  1  0  0  0
 11 12  2  0  0  0
 12 13  1  0  0  0
 13 14  2  0  0  0
 14 15  1  0  0  0
 14 16  1  0  0  0
 16 17  2  0  0  0
  4  5  1  0  0  0
  5  6  2  0  0  0
  6  7  1  0  0  0
  7  8  2  0  0  0
  8  9  1  0  0  0
  9 10  2  0  0  0
 10  1  1  0  0  0
 17 11  1  0  0  0
 10  5  1  0  0  0
 19 20  1  0  0  0
M  END
> <minimizedAffinity>
-5.74928

> <CNNscore>
0.5791019201

> <CNNaffinity>
4.1960487366

> <CNN_VS>
2.4299399853

> <CNNaffinity_variance>
0.3623953462

$$$$
[H]OC(=O)C([H])(Oc1c([H])c([H])c(-c2noc([H])c3c(C(=O)C4([H])C([H])([H])C([H])([H])C([H])([H])C4([H])[H])c([H])c([H])c2-3)c([H])c1[H])C(=O)O[H]


 32 35  0  0  0  0  0  0  0  0999 V2000
   34.7226  -12.7118   36.4336 C   0  0  0  0  0  0  0  0  0  0  0  0
   33.5706  -13.4460   36.2478 C   0  0  0  0  0  0  0  0  0  0  0  0
   33.8033  -14.8034   36.4420 C   0  0  0  0  0  0  0  0  0  0  0  0
   35.1342  -14.9587   36.7607 C   0  0  0  0  0  0  0  0  0  0  0  0
   35.9588  -16.0220   37.0609 C   0  0  0  0  0  0  0  0  0  0  0  0
   37.2622  -15.7994   37.3369 N   0  0  0  0  0  0  0  0  0  0  0  0
   37.7560  -14.6141   37.3262 O   0  0  0  0  0  0  0  0  0  0  0  0
   37.0636  -13.5363   37.0545 C   0  0  0  0  0  0  0  0  0  0  0  0
   35.7105  -13.6189   36.7527 C   0  0  0  0  0  0  0  0  0  0  0  0
   35.4292  -17.3823   37.0853 C   0  0  0  0  0  0  0  0  0  0  0  0
   35.8119  -18.2413   38.0922 C   0  0  0  0  0  0  0  0  0  0  0  0
   35.3434  -19.5484   38.1609 C   0  0  0  0  0  0  0  0  0  0  0  0
   34.4748  -20.0284   37.2155 C   0  0  0  0  0  0  0  0  0  0  0  0
   34.0810  -19.1662   36.1912 C   0  0  0  0  0  0  0  0  0  0  0  0
   34.5549  -17.8845   36.1443 C   0  0  0  0  0  0  0  0  0  0  0  0
   33.9784  -21.2990   37.2242 O   0  0  0  0  0  0  0  0  0  0  0  0
   34.3881  -22.4183   36.5205 C   0  0  0  0  0  0  0  0  0  0  0  0
   33.2262  -23.2281   36.1176 C   0  0  0  0  0  0  0  0  0  0  0  0
   32.1218  -22.6838   35.8220 O   0  0  0  0  0  0  0  0  0  0  0  0
   33.2736  -24.5972   36.0428 O   0  0  0  0  0  0  0  0  0  0  0  0
   32.7956  -25.1820   36.7137 H   0  0  0  0  0  0  0  0  0  0  0  0
   35.4702  -23.1876   37.1772 C   0  0  0  0  0  0  0  0  0  0  0  0
   35.6224  -23.1034   38.4186 O   0  0  0  0  0  0  0  0  0  0  0  0
   36.2991  -23.9897   36.4095 O   0  0  0  0  0  0  0  0  0  0  0  0
   36.9410  -24.6170   36.8732 H   0  0  0  0  0  0  0  0  0  0  0  0
   35.7733  -10.8143   35.5244 O   0  0  0  0  0  0  0  0  0  0  0  0
   34.9129  -11.2728   36.3208 C   0  0  0  0  0  0  0  0  0  0  0  0
   34.1552  -10.2692   37.0904 C   0  0  0  0  0  0  0  0  0  0  0  0
   34.0792   -8.9229   36.4864 C   0  0  0  0  0  0  0  0  0  0  0  0
   32.8568   -8.3099   37.1804 C   0  0  0  0  0  0  0  0  0  0  0  0
   31.9838   -9.4433   37.6076 C   0  0  0  0  0  0  0  0  0  0  0  0
   32.7386  -10.7012   37.2985 C   0  0  0  0  0  0  0  0  0  0  0  0
 26 27  2  0  0  0
 27  1  1  0  0  0
  1  2  2  0  0  0
  2  3  1  0  0  0
  3  4  2  0  0  0
  4  5  1  0  0  0
  5 10  1  0  0  0
 10 11  2  0  0  0
 11 12  1  0  0  0
 12 13  2  0  0  0
 13 16  1  0  0  0
 16 17  1  0  0  0
 17 18  1  0  0  0
 18 19  2  0  0  0
 18 20  1  0  0  0
 17 22  1  0  0  0
 22 23  2  0  0  0
 22 24  1  0  0  0
 13 14  1  0  0  0
 14 15  2  0  0  0
  5  6  2  0  0  0
  6  7  1  0  0  0
  7  8  1  0  0  0
  8  9  2  0  0  0
 27 28  1  0  0  0
 28 29  1  0  0  0
 29 30  1  0  0  0
 30 31  1  0  0  0
 31 32  1  0  0  0
  9  1  1  0  0  0
 32 28  1  0  0  0
  9  4  1  0  0  0
 15 10  1  0  0  0
 20 21  1  0  0  0
 24 25  1  0  0  0
M  END
> <minimizedAffinity>
-6.57304

> <CNNscore>
0.3764815032

> <CNNaffinity>
5.3620686531

> <CNN_VS>
2.0187196732

> <CNNaffinity_variance>
0.4606048167

$$$$
[H]OC(=O)C([H])(Oc1c([H])c([H])c(-c2noc([H])c3c(C(=O)C4([H])C([H])([H])C([H])([H])C([H])([H])C4([H])[H])c([H])c([H])c2-3)c([H])c1[H])C(=O)O[H]


 32 35  0  0  0  0  0  0  0  0999 V2000
   34.0926  -12.8954   37.0169 C   0  0  0  0  0  0  0  0  0  0  0  0
   33.3577  -13.9773   36.5809 C   0  0  0  0  0  0  0  0  0  0  0  0
   34.1521  -15.1140   36.4747 C   0  0  0  0  0  0  0  0  0  0  0  0
   35.4315  -14.7672   36.8487 C   0  0  0  0  0  0  0  0  0  0  0  0
   36.6392  -15.4233   36.9577 C   0  0  0  0  0  0  0  0  0  0  0  0
   37.7315  -14.7471   37.3750 N   0  0  0  0  0  0  0  0  0  0  0  0
   37.6730  -13.4998   37.6744 O   0  0  0  0  0  0  0  0  0  0  0  0
   36.5796  -12.7823   37.6064 C   0  0  0  0  0  0  0  0  0  0  0  0
   35.3819  -13.3507   37.1924 C   0  0  0  0  0  0  0  0  0  0  0  0
   36.7402  -16.8421   36.6286 C   0  0  0  0  0  0  0  0  0  0  0  0
   36.4336  -17.7841   37.5863 C   0  0  0  0  0  0  0  0  0  0  0  0
   36.5179  -19.1478   37.3295 C   0  0  0  0  0  0  0  0  0  0  0  0
   36.9145  -19.6023   36.0987 C   0  0  0  0  0  0  0  0  0  0  0  0
   37.2274  -18.6562   35.1216 C   0  0  0  0  0  0  0  0  0  0  0  0
   37.1370  -17.3200   35.3973 C   0  0  0  0  0  0  0  0  0  0  0  0
   37.0188  -20.9249   35.7815 O   0  0  0  0  0  0  0  0  0  0  0  0
   37.8283  -21.9080   36.3238 C   0  0  0  0  0  0  0  0  0  0  0  0
   38.8554  -22.3235   35.3539 C   0  0  0  0  0  0  0  0  0  0  0  0
   39.9739  -22.7740   35.7401 O   0  0  0  0  0  0  0  0  0  0  0  0
   38.6619  -22.2451   33.9979 O   0  0  0  0  0  0  0  0  0  0  0  0
   39.1431  -21.5604   33.4321 H   0  0  0  0  0  0  0  0  0  0  0  0
   37.0888  -23.0295   36.9478 C   0  0  0  0  0  0  0  0  0  0  0  0
   37.0995  -24.1572   36.4005 O   0  0  0  0  0  0  0  0  0  0  0  0
   36.3955  -22.8159   38.1283 O   0  0  0  0  0  0  0  0  0  0  0  0
   36.0119  -23.6095   38.6220 H   0  0  0  0  0  0  0  0  0  0  0  0
   32.4887  -11.3134   37.6920 O   0  0  0  0  0  0  0  0  0  0  0  0
   33.6485  -11.5290   37.2527 C   0  0  0  0  0  0  0  0  0  0  0  0
   34.4732  -10.3312   37.0100 C   0  0  0  0  0  0  0  0  0  0  0  0
   35.2308  -10.3219   35.7415 C   0  0  0  0  0  0  0  0  0  0  0  0
   35.5199   -8.8305   35.5318 C   0  0  0  0  0  0  0  0  0  0  0  0
   34.4557   -8.0739   36.2559 C   0  0  0  0  0  0  0  0  0  0  0  0
   33.6372   -9.0912   36.9926 C   0  0  0  0  0  0  0  0  0  0  0  0
 26 27  2  0  0  0
 27  1  1  0  0  0
  1  2  2  0  0  0
  2  3  1  0  0  0
  3  4  2  0  0  0
  4  5  1  0  0  0
  5 10  1  0  0  0
 10 11  2  0  0  0
 11 12  1  0  0  0
 12 13  2  0  0  0
 13 16  1  0  0  0
 16 17  1  0  0  0
 17 18  1  0  0  0
 18 19  2  0  0  0
 18 20  1  0  0  0
 17 22  1  0  0  0
 22 23  2  0  0  0
 22 24  1  0  0  0
 13 14  1  0  0  0
 14 15  2  0  0  0
  5  6  2  0  0  0
  6  7  1  0  0  0
  7  8  1  0  0  0
  8  9  2  0  0  0
 27 28  1  0  0  0
 28 29  1  0  0  0
 29 30  1  0  0  0
 30 31  1  0  0  0
 31 32  1  0  0  0
  9  1  1  0  0  0
 32 28  1  0  0  0
  9  4  1  0  0  0
 15 10  1  0  0  0
 20 21  1  0  0  0
 24 25  1  0  0  0
M  END
> <minimizedAffinity>
-6.36464

> <CNNscore>
0.3518785238

> <CNNaffinity>
5.3357501030

> <CNN_VS>
1.8775358200

> <CNNaffinity_variance>
0.4109759331

$$$$
[H]OC(=O)C([H])(Oc1c([H])c([H])c(-c2noc([H])c3c(C(=O)C4([H])C([H])([H])C([H])([H])C([H])([H])C4([H])[H])c([H])c([H])c2-3)c([H])c1[H])C(=O)O[H]


 32 35  0  0  0  0  0  0  0  0999 V2000
   34.3429  -12.8337   36.7644 C   0  0  0  0  0  0  0  0  0  0  0  0
   33.4575  -13.8258   36.4003 C   0  0  0  0  0  0  0  0  0  0  0  0
   34.0668  -15.0759   36.4229 C   0  0  0  0  0  0  0  0  0  0  0  0
   35.3765  -14.8964   36.8094 C   0  0  0  0  0  0  0  0  0  0  0  0
   36.4645  -15.7170   37.0182 C   0  0  0  0  0  0  0  0  0  0  0  0
   37.6399  -15.1808   37.4121 N   0  0  0  0  0  0  0  0  0  0  0  0
   37.7705  -13.9169   37.5979 O   0  0  0  0  0  0  0  0  0  0  0  0
   36.8041  -13.0495   37.4283 C   0  0  0  0  0  0  0  0  0  0  0  0
   35.5414  -13.4633   37.0246 C   0  0  0  0  0  0  0  0  0  0  0  0
   36.3497  -17.1589   36.8196 C   0  0  0  0  0  0  0  0  0  0  0  0
   35.8472  -17.9454   37.8331 C   0  0  0  0  0  0  0  0  0  0  0  0
   35.7214  -19.3235   37.7006 C   0  0  0  0  0  0  0  0  0  0  0  0
   36.0991  -19.9499   36.5414 C   0  0  0  0  0  0  0  0  0  0  0  0
   36.6094  -19.1622   35.5085 C   0  0  0  0  0  0  0  0  0  0  0  0
   36.7238  -17.8083   35.6618 C   0  0  0  0  0  0  0  0  0  0  0  0
   36.0026  -21.2966   36.3465 O   0  0  0  0  0  0  0  0  0  0  0  0
   35.6165  -22.2962   37.2226 C   0  0  0  0  0  0  0  0  0  0  0  0
   36.6001  -23.3919   37.2207 C   0  0  0  0  0  0  0  0  0  0  0  0
   37.3022  -23.6408   38.2446 O   0  0  0  0  0  0  0  0  0  0  0  0
   36.8093  -24.1914   36.1255 O   0  0  0  0  0  0  0  0  0  0  0  0
   37.6531  -24.1253   35.5740 H   0  0  0  0  0  0  0  0  0  0  0  0
   34.2115  -22.7368   37.0621 C   0  0  0  0  0  0  0  0  0  0  0  0
   33.9688  -23.9256   36.7472 O   0  0  0  0  0  0  0  0  0  0  0  0
   33.1848  -21.8281   37.2626 O   0  0  0  0  0  0  0  0  0  0  0  0
   32.2321  -22.1631   37.2903 H   0  0  0  0  0  0  0  0  0  0  0  0
   34.9289  -10.5959   36.3408 O   0  0  0  0  0  0  0  0  0  0  0  0
   34.1126  -11.3995   36.8628 C   0  0  0  0  0  0  0  0  0  0  0  0
   32.9612  -10.7856   37.5490 C   0  0  0  0  0  0  0  0  0  0  0  0
   32.7759   -9.3379   37.3184 C   0  0  0  0  0  0  0  0  0  0  0  0
   31.2999   -9.1252   37.6761 C   0  0  0  0  0  0  0  0  0  0  0  0
   30.6087  -10.4327   37.4716 C   0  0  0  0  0  0  0  0  0  0  0  0
   31.6764  -11.4301   37.1357 C   0  0  0  0  0  0  0  0  0  0  0  0
 26 27  2  0  0  0
 27  1  1  0  0  0
  1  2  2  0  0  0
  2  3  1  0  0  0
  3  4  2  0  0  0
  4  5  1  0  0  0
  5 10  1  0  0  0
 10 11  2  0  0  0
 11 12  1  0  0  0
 12 13  2  0  0  0
 13 16  1  0  0  0
 16 17  1  0  0  0
 17 18  1  0  0  0
 18 19  2  0  0  0
 18 20  1  0  0  0
 17 22  1  0  0  0
 22 23  2  0  0  0
 22 24  1  0  0  0
 13 14  1  0  0  0
 14 15  2  0  0  0
  5  6  2  0  0  0
  6  7  1  0  0  0
  7  8  1  0  0  0
  8  9  2  0  0  0
 27 28  1  0  0  0
 28 29  1  0  0  0
 29 30  1  0  0  0
 30 31  1  0  0  0
 31 32  1  0  0  0
  9  1  1  0  0  0
 32 28  1  0  0  0
  9  4  1  0  0  0
 15 10  1  0  0  0
 20 21  1  0  0  0
 24 25  1  0  0  0
M  END
> <minimizedAffinity>
-6.85680

> <CNNscore>
0.2870168090

> <CNNaffinity>
5.1989455223

> <CNN_VS>
1.4921847582

> <CNNaffinity_variance>
0.3009086251

$$$$
[H]OC(=O)C([H])(Oc1c([H])c([H])c(-c2noc([H])c3c(C(=O)C4([H])C([H])([H])C([H])([H])C([H])([H])C4([H])[H])c([H])c([H])c2-3)c([H])c1[H])C(=O)O[H]


 32 35  0  0  0  0  0  0  0  0999 V2000
   33.9321  -13.6175   36.8567 C   0  0  0  0  0  0  0  0  0  0  0  0
   33.4190  -14.6042   36.0418 C   0  0  0  0  0  0  0  0  0  0  0  0
   34.3455  -15.6218   35.8407 C   0  0  0  0  0  0  0  0  0  0  0  0
   35.4867  -15.2928   36.5381 C   0  0  0  0  0  0  0  0  0  0  0  0
   36.7221  -15.8716   36.7373 C   0  0  0  0  0  0  0  0  0  0  0  0
   37.6346  -15.2480   37.5137 N   0  0  0  0  0  0  0  0  0  0  0  0
   37.3787  -14.1216   38.0746 O   0  0  0  0  0  0  0  0  0  0  0  0
   36.2404  -13.4859   37.9520 C   0  0  0  0  0  0  0  0  0  0  0  0
   35.2119  -14.0134   37.1821 C   0  0  0  0  0  0  0  0  0  0  0  0
   37.0447  -17.1534   36.1172 C   0  0  0  0  0  0  0  0  0  0  0  0
   36.9909  -17.2762   34.7459 C   0  0  0  0  0  0  0  0  0  0  0  0
   37.2821  -18.4740   34.1032 C   0  0  0  0  0  0  0  0  0  0  0  0
   37.6361  -19.5843   34.8246 C   0  0  0  0  0  0  0  0  0  0  0  0
   37.6935  -19.4705   36.2144 C   0  0  0  0  0  0  0  0  0  0  0  0
   37.4028  -18.2819   36.8245 C   0  0  0  0  0  0  0  0  0  0  0  0
   37.9334  -20.7886   34.2571 O   0  0  0  0  0  0  0  0  0  0  0  0
   39.1568  -21.4133   34.0866 C   0  0  0  0  0  0  0  0  0  0  0  0
   39.3576  -22.4445   35.1183 C   0  0  0  0  0  0  0  0  0  0  0  0
   38.4728  -23.3211   35.3463 O   0  0  0  0  0  0  0  0  0  0  0  0
   40.4967  -22.5113   35.8802 O   0  0  0  0  0  0  0  0  0  0  0  0
   40.4942  -22.2668   36.8604 H   0  0  0  0  0  0  0  0  0  0  0  0
   40.2976  -20.4828   33.9232 C   0  0  0  0  0  0  0  0  0  0  0  0
   40.6749  -20.1642   32.7710 O   0  0  0  0  0  0  0  0  0  0  0  0
   40.9317  -19.9776   35.0468 O   0  0  0  0  0  0  0  0  0  0  0  0
   41.6130  -19.2399   34.9352 H   0  0  0  0  0  0  0  0  0  0  0  0
   32.0959  -12.4008   37.6807 O   0  0  0  0  0  0  0  0  0  0  0  0
   33.2975  -12.3865   37.3057 C   0  0  0  0  0  0  0  0  0  0  0  0
   33.9684  -11.0747   37.3592 C   0  0  0  0  0  0  0  0  0  0  0  0
   34.7955  -10.7303   36.1842 C   0  0  0  0  0  0  0  0  0  0  0  0
   34.8953   -9.2028   36.2776 C   0  0  0  0  0  0  0  0  0  0  0  0
   33.6965   -8.7328   37.0335 C   0  0  0  0  0  0  0  0  0  0  0  0
   32.9770   -9.9635   37.4974 C   0  0  0  0  0  0  0  0  0  0  0  0
 26 27  2  0  0  0
 27  1  1  0  0  0
  1  2  2  0  0  0
  2  3  1  0  0  0
  3  4  2  0  0  0
  4  5  1  0  0  0
  5 10  1  0  0  0
 10 11  2  0  0  0
 11 12  1  0  0  0
 12 13  2  0  0  0
 13 16  1  0  0  0
 16 17  1  0  0  0
 17 18  1  0  0  0
 18 19  2  0  0  0
 18 20  1  0  0  0
 17 22  1  0  0  0
 22 23  2  0  0  0
 22 24  1  0  0  0
 13 14  1  0  0  0
 14 15  2  0  0  0
  5  6  2  0  0  0
  6  7  1  0  0  0
  7  8  1  0  0  0
  8  9  2  0  0  0
 27 28  1  0  0  0
 28 29  1  0  0  0
 29 30  1  0  0  0
 30 31  1  0  0  0
 31 32  1  0  0  0
  9  1  1  0  0  0
 32 28  1  0  0  0
  9  4  1  0  0  0
 15 10  1  0  0  0
 20 21  1  0  0  0
 24 25  1  0  0  0
M  END
> <minimizedAffinity>
-6.38461

> <CNNscore>
0.2682251334

> <CNNaffinity>
5.0661096573

> <CNN_VS>
1.3588579893

> <CNNaffinity_variance>
0.4109806418

$$$$
[H]OC(=O)C([H])(Oc1c([H])c([H])c(-c2noc([H])c3c(C(=O)C4([H])C([H])([H])C([H])([H])C([H])([H])C4([H])[H])c([H])c([H])c2-3)c([H])c1[H])C(=O)O[H]


 32 35  0  0  0  0  0  0  0  0999 V2000
   35.4993  -13.7014   37.0194 C   0  0  0  0  0  0  0  0  0  0  0  0
   36.6648  -13.9787   37.7017 C   0  0  0  0  0  0  0  0  0  0  0  0
   36.9533  -15.3390   37.6708 C   0  0  0  0  0  0  0  0  0  0  0  0
   35.9559  -15.9624   36.9542 C   0  0  0  0  0  0  0  0  0  0  0  0
   35.6752  -17.2584   36.5768 C   0  0  0  0  0  0  0  0  0  0  0  0
   34.5691  -17.5167   35.8458 N   0  0  0  0  0  0  0  0  0  0  0  0
   33.7667  -16.5789   35.4913 O   0  0  0  0  0  0  0  0  0  0  0  0
   33.9379  -15.3166   35.7954 C   0  0  0  0  0  0  0  0  0  0  0  0
   35.0346  -14.9090   36.5437 C   0  0  0  0  0  0  0  0  0  0  0  0
   36.5681  -18.3480   36.9601 C   0  0  0  0  0  0  0  0  0  0  0  0
   36.1269  -19.3070   37.8456 C   0  0  0  0  0  0  0  0  0  0  0  0
   36.9364  -20.3626   38.2494 C   0  0  0  0  0  0  0  0  0  0  0  0
   38.2158  -20.4824   37.7722 C   0  0  0  0  0  0  0  0  0  0  0  0
   38.6724  -19.5161   36.8747 C   0  0  0  0  0  0  0  0  0  0  0  0
   37.8579  -18.4867   36.4918 C   0  0  0  0  0  0  0  0  0  0  0  0
   39.0612  -21.4921   38.1278 O   0  0  0  0  0  0  0  0  0  0  0  0
   40.1269  -21.4898   39.0111 C   0  0  0  0  0  0  0  0  0  0  0  0
   41.2799  -22.1979   38.4302 C   0  0  0  0  0  0  0  0  0  0  0  0
   42.2271  -22.6127   39.1609 O   0  0  0  0  0  0  0  0  0  0  0  0
   41.3917  -22.4427   37.0849 O   0  0  0  0  0  0  0  0  0  0  0  0
   42.0619  -21.9515   36.5103 H   0  0  0  0  0  0  0  0  0  0  0  0
   39.7784  -21.9156   40.3862 C   0  0  0  0  0  0  0  0  0  0  0  0
   39.3353  -21.0720   41.2008 O   0  0  0  0  0  0  0  0  0  0  0  0
   39.9472  -23.2411   40.7529 O   0  0  0  0  0  0  0  0  0  0  0  0
   39.5796  -23.5550   41.6401 H   0  0  0  0  0  0  0  0  0  0  0  0
   35.3060  -11.6031   35.9750 O   0  0  0  0  0  0  0  0  0  0  0  0
   34.8459  -12.4158   36.8191 C   0  0  0  0  0  0  0  0  0  0  0  0
   33.6461  -11.9681   37.5497 C   0  0  0  0  0  0  0  0  0  0  0  0
   33.4198  -10.5082   37.5752 C   0  0  0  0  0  0  0  0  0  0  0  0
   31.9237  -10.4040   37.8955 C   0  0  0  0  0  0  0  0  0  0  0  0
   31.2880  -11.6709   37.4264 C   0  0  0  0  0  0  0  0  0  0  0  0
   32.4030  -12.5614   36.9669 C   0  0  0  0  0  0  0  0  0  0  0  0
 26 27  2  0  0  0
 27  1  1  0  0  0
  1  2  2  0  0  0
  2  3  1  0  0  0
  3  4  2  0  0  0
  4  5  1  0  0  0
  5 10  1  0  0  0
 10 11  2  0  0  0
 11 12  1  0  0  0
 12 13  2  0  0  0
 13 16  1  0  0  0
 16 17  1  0  0  0
 17 18  1  0  0  0
 18 19  2  0  0  0
 18 20  1  0  0  0
 17 22  1  0  0  0
 22 23  2  0  0  0
 22 24  1  0  0  0
 13 14  1  0  0  0
 14 15  2  0  0  0
  5  6  2  0  0  0
  6  7  1  0  0  0
  7  8  1  0  0  0
  8  9  2  0  0  0
 27 28  1  0  0  0
 28 29  1  0  0  0
 29 30  1  0  0  0
 30 31  1  0  0  0
 31 32  1  0  0  0
  9  1  1  0  0  0
 32 28  1  0  0  0
  9  4  1  0  0  0
 15 10  1  0  0  0
 20 21  1  0  0  0
 24 25  1  0  0  0
M  END
> <minimizedAffinity>
-7.34843

> <CNNscore>
0.2539692521

> <CNNaffinity>
4.9460411072

> <CNN_VS>
1.2561423779

> <CNNaffinity_variance>
0.1750982106

$$$$
[H]OC(=O)C([H])(Oc1c([H])c([H])c(-c2noc([H])c3c(C(=O)C4([H])C([H])([H])C([H])([H])C([H])([H])C4([H])[H])c([H])c([H])c2-3)c([H])c1[H])C(=O)O[H]


 32 35  0  0  0  0  0  0  0  0999 V2000
   32.4141  -21.6259   36.3729 C   0  0  0  0  0  0  0  0  0  0  0  0
   31.6676  -20.5246   36.0114 C   0  0  0  0  0  0  0  0  0  0  0  0
   32.4312  -19.3630   36.0576 C   0  0  0  0  0  0  0  0  0  0  0  0
   33.7018  -19.7129   36.4576 C   0  0  0  0  0  0  0  0  0  0  0  0
   34.8838  -19.0411   36.6864 C   0  0  0  0  0  0  0  0  0  0  0  0
   35.9771  -19.7284   37.0823 N   0  0  0  0  0  0  0  0  0  0  0  0
   35.9428  -21.0007   37.2526 O   0  0  0  0  0  0  0  0  0  0  0  0
   34.8748  -21.7349   37.0642 C   0  0  0  0  0  0  0  0  0  0  0  0
   33.6795  -21.1577   36.6556 C   0  0  0  0  0  0  0  0  0  0  0  0
   34.9585  -17.5951   36.4990 C   0  0  0  0  0  0  0  0  0  0  0  0
   36.0155  -16.8949   37.0384 C   0  0  0  0  0  0  0  0  0  0  0  0
   36.1337  -15.5171   36.8960 C   0  0  0  0  0  0  0  0  0  0  0  0
   35.1888  -14.8039   36.2051 C   0  0  0  0  0  0  0  0  0  0  0  0
   34.1140  -15.5038   35.6548 C   0  0  0  0  0  0  0  0  0  0  0  0
   34.0189  -16.8592   35.8079 C   0  0  0  0  0  0  0  0  0  0  0  0
   35.2444  -13.4524   36.0290 O   0  0  0  0  0  0  0  0  0  0  0  0
   34.8759  -12.4285   36.8844 C   0  0  0  0  0  0  0  0  0  0  0  0
   33.5394  -12.6828   37.4477 C   0  0  0  0  0  0  0  0  0  0  0  0
   33.4014  -13.1430   38.6192 O   0  0  0  0  0  0  0  0  0  0  0  0
   32.3863  -12.4408   36.7448 O   0  0  0  0  0  0  0  0  0  0  0  0
   31.8128  -13.1936   36.3911 H   0  0  0  0  0  0  0  0  0  0  0  0
   35.0521  -11.0706   36.3197 C   0  0  0  0  0  0  0  0  0  0  0  0
   34.4584  -10.1004   36.8466 O   0  0  0  0  0  0  0  0  0  0  0  0
   35.8712  -10.8920   35.2165 O   0  0  0  0  0  0  0  0  0  0  0  0
   36.0992   -9.9528   34.9220 H   0  0  0  0  0  0  0  0  0  0  0  0
   31.5033  -23.4580   37.5325 O   0  0  0  0  0  0  0  0  0  0  0  0
   31.9979  -23.0182   36.4617 C   0  0  0  0  0  0  0  0  0  0  0  0
   32.1121  -23.9937   35.3622 C   0  0  0  0  0  0  0  0  0  0  0  0
   31.3109  -25.2259   35.5138 C   0  0  0  0  0  0  0  0  0  0  0  0
   31.2090  -25.7419   34.0733 C   0  0  0  0  0  0  0  0  0  0  0  0
   31.3649  -24.5598   33.1746 C   0  0  0  0  0  0  0  0  0  0  0  0
   31.6911  -23.3938   34.0585 C   0  0  0  0  0  0  0  0  0  0  0  0
 26 27  2  0  0  0
 27  1  1  0  0  0
  1  2  2  0  0  0
  2  3  1  0  0  0
  3  4  2  0  0  0
  4  5  1  0  0  0
  5 10  1  0  0  0
 10 11  2  0  0  0
 11 12  1  0  0  0
 12 13  2  0  0  0
 13 16  1  0  0  0
 16 17  1  0  0  0
 17 18  1  0  0  0
 18 19  2  0  0  0
 18 20  1  0  0  0
 17 22  1  0  0  0
 22 23  2  0  0  0
 22 24  1  0  0  0
 13 14  1  0  0  0
 14 15  2  0  0  0
  5  6  2  0  0  0
  6  7  1  0  0  0
  7  8  1  0  0  0
  8  9  2  0  0  0
 27 28  1  0  0  0
 28 29  1  0  0  0
 29 30  1  0  0  0
 30 31  1  0  0  0
 31 32  1  0  0  0
  9  1  1  0  0  0
 32 28  1  0  0  0
  9  4  1  0  0  0
 15 10  1  0  0  0
 20 21  1  0  0  0
 24 25  1  0  0  0
M  END
> <minimizedAffinity>
-6.69913

> <CNNscore>
0.2159868777

> <CNNaffinity>
4.6142306328

> <CNN_VS>
0.9966132641

> <CNNaffinity_variance>
0.1040766090

$$$$
[H]OC(=O)C([H])(Oc1c([H])c([H])c(-c2noc([H])c3c(C(=O)C4([H])C([H])([H])C([H])([H])C([H])([H])C4([H])[H])c([H])c([H])c2-3)c([H])c1[H])C(=O)O[H]


 32 35  0  0  0  0  0  0  0  0999 V2000
   35.0866  -13.8404   37.2908 C   0  0  0  0  0  0  0  0  0  0  0  0
   36.4168  -13.9536   37.6353 C   0  0  0  0  0  0  0  0  0  0  0  0
   36.9712  -15.1208   37.1209 C   0  0  0  0  0  0  0  0  0  0  0  0
   35.9831  -15.7832   36.4267 C   0  0  0  0  0  0  0  0  0  0  0  0
   35.8998  -16.9573   35.7089 C   0  0  0  0  0  0  0  0  0  0  0  0
   34.7277  -17.3090   35.1371 N   0  0  0  0  0  0  0  0  0  0  0  0
   33.6817  -16.5723   35.2465 O   0  0  0  0  0  0  0  0  0  0  0  0
   33.6504  -15.4403   35.9043 C   0  0  0  0  0  0  0  0  0  0  0  0
   34.7861  -14.9579   36.5415 C   0  0  0  0  0  0  0  0  0  0  0  0
   37.0709  -17.8167   35.5619 C   0  0  0  0  0  0  0  0  0  0  0  0
   37.5644  -18.0813   34.3031 C   0  0  0  0  0  0  0  0  0  0  0  0
   38.6725  -18.8970   34.1044 C   0  0  0  0  0  0  0  0  0  0  0  0
   39.3160  -19.4707   35.1700 C   0  0  0  0  0  0  0  0  0  0  0  0
   38.8239  -19.2090   36.4495 C   0  0  0  0  0  0  0  0  0  0  0  0
   37.7324  -18.4034   36.6203 C   0  0  0  0  0  0  0  0  0  0  0  0
   40.4068  -20.2802   35.0448 O   0  0  0  0  0  0  0  0  0  0  0  0
   41.4433  -20.2399   34.1284 C   0  0  0  0  0  0  0  0  0  0  0  0
   41.9042  -21.6018   33.8106 C   0  0  0  0  0  0  0  0  0  0  0  0
   41.0973  -22.4830   33.3917 O   0  0  0  0  0  0  0  0  0  0  0  0
   43.2135  -21.9871   33.9504 O   0  0  0  0  0  0  0  0  0  0  0  0
   43.5058  -22.6165   34.6846 H   0  0  0  0  0  0  0  0  0  0  0  0
   42.5284  -19.2943   34.4782 C   0  0  0  0  0  0  0  0  0  0  0  0
   43.1597  -19.4474   35.5503 O   0  0  0  0  0  0  0  0  0  0  0  0
   42.8304  -18.2534   33.6148 O   0  0  0  0  0  0  0  0  0  0  0  0
   43.6569  -17.6983   33.7864 H   0  0  0  0  0  0  0  0  0  0  0  0
   33.3626  -12.9273   38.6042 O   0  0  0  0  0  0  0  0  0  0  0  0
   34.1457  -12.7822   37.6293 C   0  0  0  0  0  0  0  0  0  0  0  0
   34.0273  -11.5073   36.8984 C   0  0  0  0  0  0  0  0  0  0  0  0
   33.6809  -10.3285   37.7193 C   0  0  0  0  0  0  0  0  0  0  0  0
   34.1477   -9.1587   36.8443 C   0  0  0  0  0  0  0  0  0  0  0  0
   35.2305   -9.6812   35.9590 C   0  0  0  0  0  0  0  0  0  0  0  0
   35.3061  -11.1580   36.2060 C   0  0  0  0  0  0  0  0  0  0  0  0
 26 27  2  0  0  0
 27  1  1  0  0  0
  1  2  2  0  0  0
  2  3  1  0  0  0
  3  4  2  0  0  0
  4  5  1  0  0  0
  5 10  1  0  0  0
 10 11  2  0  0  0
 11 12  1  0  0  0
 12 13  2  0  0  0
 13 16  1  0  0  0
 16 17  1  0  0  0
 17 18  1  0  0  0
 18 19  2  0  0  0
 18 20  1  0  0  0
 17 22  1  0  0  0
 22 23  2  0  0  0
 22 24  1  0  0  0
 13 14  1  0  0  0
 14 15  2  0  0  0
  5  6  2  0  0  0
  6  7  1  0  0  0
  7  8  1  0  0  0
  8  9  2  0  0  0
 27 28  1  0  0  0
 28 29  1  0  0  0
 29 30  1  0  0  0
 30 31  1  0  0  0
 31 32  1  0  0  0
  9  1  1  0  0  0
 32 28  1  0  0  0
  9  4  1  0  0  0
 15 10  1  0  0  0
 20 21  1  0  0  0
 24 25  1  0  0  0
M  END
> <minimizedAffinity>
-8.20082

> <CNNscore>
0.1992882639

> <CNNaffinity>
5.0049996376

> <CNN_VS>
0.9974377155

> <CNNaffinity_variance>
0.2922655344

$$$$
[H]OC(=O)C([H])(Oc1c([H])c([H])c(-c2noc([H])c3c(C(=O)C4([H])C([H])([H])C([H])([H])C([H])([H])C4([H])[H])c([H])c([H])c2-3)c([H])c1[H])C(=O)O[H]


 32 35  0  0  0  0  0  0  0  0999 V2000
   41.2966  -19.8325   37.1270 C   0  0  0  0  0  0  0  0  0  0  0  0
   40.4609  -18.9440   36.4844 C   0  0  0  0  0  0  0  0  0  0  0  0
   39.1254  -19.2806   36.6783 C   0  0  0  0  0  0  0  0  0  0  0  0
   39.0883  -20.4117   37.4632 C   0  0  0  0  0  0  0  0  0  0  0  0
   38.0990  -21.2127   37.9927 C   0  0  0  0  0  0  0  0  0  0  0  0
   38.4367  -22.2804   38.7480 N   0  0  0  0  0  0  0  0  0  0  0  0
   39.6646  -22.5703   38.9866 O   0  0  0  0  0  0  0  0  0  0  0  0
   40.6803  -21.8786   38.5337 C   0  0  0  0  0  0  0  0  0  0  0  0
   40.4779  -20.7547   37.7434 C   0  0  0  0  0  0  0  0  0  0  0  0
   36.6926  -20.9097   37.7439 C   0  0  0  0  0  0  0  0  0  0  0  0
   35.8226  -21.9326   37.4355 C   0  0  0  0  0  0  0  0  0  0  0  0
   34.4752  -21.7007   37.1835 C   0  0  0  0  0  0  0  0  0  0  0  0
   33.9649  -20.4296   37.2349 C   0  0  0  0  0  0  0  0  0  0  0  0
   34.8379  -19.3863   37.5463 C   0  0  0  0  0  0  0  0  0  0  0  0
   36.1594  -19.6386   37.7904 C   0  0  0  0  0  0  0  0  0  0  0  0
   32.6546  -20.1335   36.9981 O   0  0  0  0  0  0  0  0  0  0  0  0
   31.8631  -20.4191   35.8990 C   0  0  0  0  0  0  0  0  0  0  0  0
   31.4552  -19.1775   35.2205 C   0  0  0  0  0  0  0  0  0  0  0  0
   32.2574  -18.5512   34.4672 O   0  0  0  0  0  0  0  0  0  0  0  0
   30.2027  -18.6367   35.3658 O   0  0  0  0  0  0  0  0  0  0  0  0
   30.0490  -17.7884   35.8925 H   0  0  0  0  0  0  0  0  0  0  0  0
   30.7507  -21.3565   36.1773 C   0  0  0  0  0  0  0  0  0  0  0  0
   29.9170  -21.0782   37.0711 O   0  0  0  0  0  0  0  0  0  0  0  0
   30.6472  -22.5283   35.4451 O   0  0  0  0  0  0  0  0  0  0  0  0
   29.8151  -23.0935   35.5394 H   0  0  0  0  0  0  0  0  0  0  0  0
   43.4066  -20.2313   36.1681 O   0  0  0  0  0  0  0  0  0  0  0  0
   42.7518  -19.8441   37.1711 C   0  0  0  0  0  0  0  0  0  0  0  0
   43.5535  -19.4261   38.3356 C   0  0  0  0  0  0  0  0  0  0  0  0
   42.8516  -18.5854   39.3275 C   0  0  0  0  0  0  0  0  0  0  0  0
   43.7036  -18.7691   40.5893 C   0  0  0  0  0  0  0  0  0  0  0  0
   44.3919  -20.0880   40.4625 C   0  0  0  0  0  0  0  0  0  0  0  0
   44.0647  -20.6086   39.0952 C   0  0  0  0  0  0  0  0  0  0  0  0
 26 27  2  0  0  0
 27  1  1  0  0  0
  1  2  2  0  0  0
  2  3  1  0  0  0
  3  4  2  0  0  0
  4  5  1  0  0  0
  5 10  1  0  0  0
 10 11  2  0  0  0
 11 12  1  0  0  0
 12 13  2  0  0  0
 13 16  1  0  0  0
 16 17  1  0  0  0
 17 18  1  0  0  0
 18 19  2  0  0  0
 18 20  1  0  0  0
 17 22  1  0  0  0
 22 23  2  0  0  0
 22 24  1  0  0  0
 13 14  1  0  0  0
 14 15  2  0  0  0
  5  6  2  0  0  0
  6  7  1  0  0  0
  7  8  1  0  0  0
  8  9  2  0  0  0
 27 28  1  0  0  0
 28 29  1  0  0  0
 29 30  1  0  0  0
 30 31  1  0  0  0
 31 32  1  0  0  0
  9  1  1  0  0  0
 32 28  1  0  0  0
  9  4  1  0  0  0
 15 10  1  0  0  0
 20 21  1  0  0  0
 24 25  1  0  0  0
M  END
> <minimizedAffinity>
-5.61086

> <CNNscore>
0.1927477866

> <CNNaffinity>
4.3896455765

> <CNN_VS>
0.8460944891

> <CNNaffinity_variance>
0.0920809507

$$$$
[H]OC(=O)C([H])(Oc1c([H])c([H])c(-c2noc([H])c3c(C(=O)C4([H])C([H])([H])C([H])([H])C([H])([H])C4([H])[H])c([H])c([H])c2-3)c([H])c1[H])C(=O)O[H]


 32 35  0  0  0  0  0  0  0  0999 V2000
   34.6926  -18.8213   34.6970 C   0  0  0  0  0  0  0  0  0  0  0  0
   35.8542  -18.7879   33.9550 C   0  0  0  0  0  0  0  0  0  0  0  0
   36.9563  -19.1290   34.7319 C   0  0  0  0  0  0  0  0  0  0  0  0
   36.5053  -19.3900   36.0068 C   0  0  0  0  0  0  0  0  0  0  0  0
   37.0841  -19.7686   37.1994 C   0  0  0  0  0  0  0  0  0  0  0  0
   36.3095  -19.9439   38.2920 N   0  0  0  0  0  0  0  0  0  0  0  0
   35.0387  -19.7651   38.2475 O   0  0  0  0  0  0  0  0  0  0  0  0
   34.3885  -19.4057   37.1691 C   0  0  0  0  0  0  0  0  0  0  0  0
   35.0609  -19.1910   35.9730 C   0  0  0  0  0  0  0  0  0  0  0  0
   38.5257  -19.9837   37.2842 C   0  0  0  0  0  0  0  0  0  0  0  0
   39.3843  -18.9407   37.0131 C   0  0  0  0  0  0  0  0  0  0  0  0
   40.7650  -19.0907   37.0727 C   0  0  0  0  0  0  0  0  0  0  0  0
   41.3215  -20.2979   37.4074 C   0  0  0  0  0  0  0  0  0  0  0  0
   40.4605  -21.3609   37.6839 C   0  0  0  0  0  0  0  0  0  0  0  0
   39.1055  -21.1895   37.6188 C   0  0  0  0  0  0  0  0  0  0  0  0
   42.6664  -20.5125   37.4836 O   0  0  0  0  0  0  0  0  0  0  0  0
   43.6340  -20.4500   36.4958 C   0  0  0  0  0  0  0  0  0  0  0  0
   44.1942  -19.0911   36.4078 C   0  0  0  0  0  0  0  0  0  0  0  0
   44.6217  -18.6309   35.3084 O   0  0  0  0  0  0  0  0  0  0  0  0
   44.2849  -18.2605   37.4961 O   0  0  0  0  0  0  0  0  0  0  0  0
   45.1737  -18.0411   37.9233 H   0  0  0  0  0  0  0  0  0  0  0  0
   43.2144  -21.0226   35.1958 C   0  0  0  0  0  0  0  0  0  0  0  0
   43.3635  -22.2492   34.9839 O   0  0  0  0  0  0  0  0  0  0  0  0
   42.6627  -20.1940   34.2320 O   0  0  0  0  0  0  0  0  0  0  0  0
   42.2514  -20.6076   33.4071 H   0  0  0  0  0  0  0  0  0  0  0  0
   33.0030  -17.3451   33.9920 O   0  0  0  0  0  0  0  0  0  0  0  0
   33.3317  -18.5278   34.2709 C   0  0  0  0  0  0  0  0  0  0  0  0
   32.2655  -19.5369   34.1343 C   0  0  0  0  0  0  0  0  0  0  0  0
   32.6777  -20.9381   34.3581 C   0  0  0  0  0  0  0  0  0  0  0  0
   31.3488  -21.6341   34.6768 C   0  0  0  0  0  0  0  0  0  0  0  0
   30.4301  -20.5913   35.2224 C   0  0  0  0  0  0  0  0  0  0  0  0
   31.1510  -19.2827   35.0987 C   0  0  0  0  0  0  0  0  0  0  0  0
 26 27  2  0  0  0
 27  1  1  0  0  0
  1  2  2  0  0  0
  2  3  1  0  0  0
  3  4  2  0  0  0
  4  5  1  0  0  0
  5 10  1  0  0  0
 10 11  2  0  0  0
 11 12  1  0  0  0
 12 13  2  0  0  0
 13 16  1  0  0  0
 16 17  1  0  0  0
 17 18  1  0  0  0
 18 19  2  0  0  0
 18 20  1  0  0  0
 17 22  1  0  0  0
 22 23  2  0  0  0
 22 24  1  0  0  0
 13 14  1  0  0  0
 14 15  2  0  0  0
  5  6  2  0  0  0
  6  7  1  0  0  0
  7  8  1  0  0  0
  8  9  2  0  0  0
 27 28  1  0  0  0
 28 29  1  0  0  0
 29 30  1  0  0  0
 30 31  1  0  0  0
 31 32  1  0  0  0
  9  1  1  0  0  0
 32 28  1  0  0  0
  9  4  1  0  0  0
 15 10  1  0  0  0
 20 21  1  0  0  0
 24 25  1  0  0  0
M  END
> <minimizedAffinity>
-5.58584

> <CNNscore>
0.1926413924

> <CNNaffinity>
4.3854136467

> <CNN_VS>
0.8448122144

> <CNNaffinity_variance>
0.1917263716

$$$$
[H]c1c(OC([H])([H])[H])c([H])c2c3nnc(SC([H])([H])[H])nc3n(C([H])([H])[H])c2c1[H]


 18 20  0  0  0  0  0  0  0  0999 V2000
   32.3363  -19.3263   34.2784 C   0  0  0  0  0  0  0  0  0  0  0  0
   33.4114  -20.0463   33.8024 C   0  0  0  0  0  0  0  0  0  0  0  0
   34.6954  -19.5180   33.9486 C   0  0  0  0  0  0  0  0  0  0  0  0
   34.9168  -18.2907   34.5588 C   0  0  0  0  0  0  0  0  0  0  0  0
   33.8321  -17.5860   35.0279 C   0  0  0  0  0  0  0  0  0  0  0  0
   32.5458  -18.1080   34.8853 C   0  0  0  0  0  0  0  0  0  0  0  0
   34.2996  -16.4169   35.5846 C   0  0  0  0  0  0  0  0  0  0  0  0
   33.6564  -15.3965   36.1735 N   0  0  0  0  0  0  0  0  0  0  0  0
   34.3530  -14.3717   36.6343 N   0  0  0  0  0  0  0  0  0  0  0  0
   35.6807  -14.3891   36.4956 C   0  0  0  0  0  0  0  0  0  0  0  0
   36.3572  -15.3912   35.9126 N   0  0  0  0  0  0  0  0  0  0  0  0
   35.6766  -16.4587   35.4286 C   0  0  0  0  0  0  0  0  0  0  0  0
   36.0508  -17.5911   34.8086 N   0  0  0  0  0  0  0  0  0  0  0  0
   37.4226  -17.9871   34.4699 C   0  0  0  0  0  0  0  0  0  0  0  0
   29.9552  -19.3629   34.9250 C   0  0  0  0  0  0  0  0  0  0  0  0
   31.0417  -19.7953   34.1639 O   0  0  0  0  0  0  0  0  0  0  0  0
   36.5930  -12.9852   37.1296 S   0  0  0  0  0  0  0  0  0  0  0  0
   38.2112  -13.5587   37.7426 C   0  0  0  0  0  0  0  0  0  0  0  0
 15 16  1  0  0  0
 16  1  1  0  0  0
  1  2  2  0  0  0
  2  3  1  0  0  0
  3  4  2  0  0  0
  4  5  1  0  0  0
  5  6  2  0  0  0
  5  7  1  0  0  0
  7  8  2  0  0  0
  8  9  1  0  0  0
  9 10  2  0  0  0
 10 17  1  0  0  0
 17 18  1  0  0  0
 10 11  1  0  0  0
 11 12  2  0  0  0
 12 13  1  0  0  0
 13 14  1  0  0  0
  6  1  1  0  0  0
 12  7  1  0  0  0
 13  4  1  0  0  0
M  END
> <minimizedAffinity>
-5.70197

> <CNNscore>
0.8298472762

> <CNNaffinity>
4.7991323471

> <CNN_VS>
3.9825468063

> <CNNaffinity_variance>
0.3816038966

$$$$
[H]c1c(OC([H])([H])[H])c([H])c2c3nnc(SC([H])([H])[H])nc3n(C([H])([H])[H])c2c1[H]


 18 20  0  0  0  0  0  0  0  0999 V2000
   34.8496  -17.8073   35.3248 C   0  0  0  0  0  0  0  0  0  0  0  0
   36.1677  -17.8507   35.7264 C   0  0  0  0  0  0  0  0  0  0  0  0
   36.7267  -16.7230   36.3305 C   0  0  0  0  0  0  0  0  0  0  0  0
   35.9920  -15.5631   36.5364 C   0  0  0  0  0  0  0  0  0  0  0  0
   34.6780  -15.5376   36.1293 C   0  0  0  0  0  0  0  0  0  0  0  0
   34.1126  -16.6613   35.5248 C   0  0  0  0  0  0  0  0  0  0  0  0
   34.1667  -14.2970   36.4371 C   0  0  0  0  0  0  0  0  0  0  0  0
   32.9466  -13.7700   36.2500 N   0  0  0  0  0  0  0  0  0  0  0  0
   32.7090  -12.5308   36.6449 N   0  0  0  0  0  0  0  0  0  0  0  0
   33.6991  -11.8438   37.2192 C   0  0  0  0  0  0  0  0  0  0  0  0
   34.9306  -12.3376   37.4223 N   0  0  0  0  0  0  0  0  0  0  0  0
   35.2109  -13.6045   37.0307 C   0  0  0  0  0  0  0  0  0  0  0  0
   36.3149  -14.3690   37.0913 N   0  0  0  0  0  0  0  0  0  0  0  0
   37.6148  -13.9802   37.6503 C   0  0  0  0  0  0  0  0  0  0  0  0
   32.8970  -18.9560   34.3464 C   0  0  0  0  0  0  0  0  0  0  0  0
   34.2393  -18.8903   34.7216 O   0  0  0  0  0  0  0  0  0  0  0  0
   33.3436  -10.1684   37.7409 S   0  0  0  0  0  0  0  0  0  0  0  0
   31.6135   -9.7732   37.3242 C   0  0  0  0  0  0  0  0  0  0  0  0
 15 16  1  0  0  0
 16  1  1  0  0  0
  1  2  2  0  0  0
  2  3  1  0  0  0
  3  4  2  0  0  0
  4  5  1  0  0  0
  5  6  2  0  0  0
  5  7  1  0  0  0
  7  8  2  0  0  0
  8  9  1  0  0  0
  9 10  2  0  0  0
 10 17  1  0  0  0
 17 18  1  0  0  0
 10 11  1  0  0  0
 11 12  2  0  0  0
 12 13  1  0  0  0
 13 14  1  0  0  0
  6  1  1  0  0  0
 12  7  1  0  0  0
 13  4  1  0  0  0
M  END
> <minimizedAffinity>
-5.92633

> <CNNscore>
0.7162630558

> <CNNaffinity>
5.0510735512

> <CNN_VS>
3.6178972721

> <CNNaffinity_variance>
0.3837830126

$$$$
[H]c1c(OC([H])([H])[H])c([H])c2c3nnc(SC([H])([H])[H])nc3n(C([H])([H])[H])c2c1[H]


 18 20  0  0  0  0  0  0  0  0999 V2000
   32.4083  -12.3653   36.9795 C   0  0  0  0  0  0  0  0  0  0  0  0
   33.4460  -11.5964   37.4618 C   0  0  0  0  0  0  0  0  0  0  0  0
   34.7386  -12.1237   37.4506 C   0  0  0  0  0  0  0  0  0  0  0  0
   35.0051  -13.3979   36.9680 C   0  0  0  0  0  0  0  0  0  0  0  0
   33.9574  -14.1511   36.4905 C   0  0  0  0  0  0  0  0  0  0  0  0
   32.6626  -13.6304   36.4985 C   0  0  0  0  0  0  0  0  0  0  0  0
   34.4655  -15.3604   36.0726 C   0  0  0  0  0  0  0  0  0  0  0  0
   33.8674  -16.4346   35.5341 N   0  0  0  0  0  0  0  0  0  0  0  0
   34.5972  -17.4897   35.2143 N   0  0  0  0  0  0  0  0  0  0  0  0
   35.9121  -17.4478   35.4408 C   0  0  0  0  0  0  0  0  0  0  0  0
   36.5440  -16.3921   35.9773 N   0  0  0  0  0  0  0  0  0  0  0  0
   35.8285  -15.2924   36.3175 C   0  0  0  0  0  0  0  0  0  0  0  0
   36.1558  -14.1064   36.8588 N   0  0  0  0  0  0  0  0  0  0  0  0
   37.4999  -13.6695   37.2535 C   0  0  0  0  0  0  0  0  0  0  0  0
   30.7090  -10.6031   37.2898 C   0  0  0  0  0  0  0  0  0  0  0  0
   31.1074  -11.8999   36.9637 O   0  0  0  0  0  0  0  0  0  0  0  0
   36.8701  -18.8938   34.9972 S   0  0  0  0  0  0  0  0  0  0  0  0
   38.1600  -18.4063   33.8048 C   0  0  0  0  0  0  0  0  0  0  0  0
 15 16  1  0  0  0
 16  1  1  0  0  0
  1  2  2  0  0  0
  2  3  1  0  0  0
  3  4  2  0  0  0
  4  5  1  0  0  0
  5  6  2  0  0  0
  5  7  1  0  0  0
  7  8  2  0  0  0
  8  9  1  0  0  0
  9 10  2  0  0  0
 10 17  1  0  0  0
 17 18  1  0  0  0
 10 11  1  0  0  0
 11 12  2  0  0  0
 12 13  1  0  0  0
 13 14  1  0  0  0
  6  1  1  0  0  0
 12  7  1  0  0  0
 13  4  1  0  0  0
M  END
> <minimizedAffinity>
-6.23310

> <CNNscore>
0.5189703107

> <CNNaffinity>
4.8591623306

> <CNN_VS>
2.5217609406

> <CNNaffinity_variance>
0.2833126783

$$$$
[H]c1c(OC([H])([H])[H])c([H])c2c3nnc(SC([H])([H])[H])nc3n(C([H])([H])[H])c2c1[H]


 18 20  0  0  0  0  0  0  0  0999 V2000
   35.5902  -13.9762   36.8610 C   0  0  0  0  0  0  0  0  0  0  0  0
   36.6349  -14.5198   37.5777 C   0  0  0  0  0  0  0  0  0  0  0  0
   36.7952  -15.9066   37.5903 C   0  0  0  0  0  0  0  0  0  0  0  0
   35.9329  -16.7494   36.9023 C   0  0  0  0  0  0  0  0  0  0  0  0
   34.8958  -16.1895   36.1923 C   0  0  0  0  0  0  0  0  0  0  0  0
   34.7295  -14.8040   36.1751 C   0  0  0  0  0  0  0  0  0  0  0  0
   34.1890  -17.2134   35.6029 C   0  0  0  0  0  0  0  0  0  0  0  0
   33.1022  -17.2015   34.8155 N   0  0  0  0  0  0  0  0  0  0  0  0
   32.6110  -18.3463   34.3725 N   0  0  0  0  0  0  0  0  0  0  0  0
   33.2185  -19.4808   34.7277 C   0  0  0  0  0  0  0  0  0  0  0  0
   34.3060  -19.5311   35.5130 N   0  0  0  0  0  0  0  0  0  0  0  0
   34.8376  -18.3775   35.9857 C   0  0  0  0  0  0  0  0  0  0  0  0
   35.8920  -18.0982   36.7712 N   0  0  0  0  0  0  0  0  0  0  0  0
   36.8156  -19.0695   37.3686 C   0  0  0  0  0  0  0  0  0  0  0  0
   34.2134  -11.9588   37.2126 C   0  0  0  0  0  0  0  0  0  0  0  0
   35.3787  -12.6117   36.8094 O   0  0  0  0  0  0  0  0  0  0  0  0
   32.5267  -21.0127   34.1112 S   0  0  0  0  0  0  0  0  0  0  0  0
   31.7256  -21.8972   35.4893 C   0  0  0  0  0  0  0  0  0  0  0  0
 15 16  1  0  0  0
 16  1  1  0  0  0
  1  2  2  0  0  0
  2  3  1  0  0  0
  3  4  2  0  0  0
  4  5  1  0  0  0
  5  6  2  0  0  0
  5  7  1  0  0  0
  7  8  2  0  0  0
  8  9  1  0  0  0
  9 10  2  0  0  0
 10 17  1  0  0  0
 17 18  1  0  0  0
 10 11  1  0  0  0
 11 12  2  0  0  0
 12 13  1  0  0  0
 13 14  1  0  0  0
  6  1  1  0  0  0
 12  7  1  0  0  0
 13  4  1  0  0  0
M  END
> <minimizedAffinity>
-5.99629

> <CNNscore>
0.5116107464

> <CNNaffinity>
4.2845292091

> <CNN_VS>
2.1920111179

> <CNNaffinity_variance>
0.5576173663

$$$$
[H]c1c(OC([H])([H])[H])c([H])c2c3nnc(SC([H])([H])[H])nc3n(C([H])([H])[H])c2c1[H]


 18 20  0  0  0  0  0  0  0  0999 V2000
   29.7119  -21.0101   36.0064 C   0  0  0  0  0  0  0  0  0  0  0  0
   29.5688  -19.8935   35.2106 C   0  0  0  0  0  0  0  0  0  0  0  0
   30.6929  -19.1129   34.9346 C   0  0  0  0  0  0  0  0  0  0  0  0
   31.9466  -19.4309   35.4390 C   0  0  0  0  0  0  0  0  0  0  0  0
   32.0709  -20.5489   36.2313 C   0  0  0  0  0  0  0  0  0  0  0  0
   30.9516  -21.3339   36.5113 C   0  0  0  0  0  0  0  0  0  0  0  0
   33.3917  -20.6543   36.6051 C   0  0  0  0  0  0  0  0  0  0  0  0
   34.0276  -21.5576   37.3674 N   0  0  0  0  0  0  0  0  0  0  0  0
   35.3269  -21.4292   37.5756 N   0  0  0  0  0  0  0  0  0  0  0  0
   35.9635  -20.3977   37.0161 C   0  0  0  0  0  0  0  0  0  0  0  0
   35.3608  -19.4757   36.2490 N   0  0  0  0  0  0  0  0  0  0  0  0
   34.0298  -19.5750   36.0133 C   0  0  0  0  0  0  0  0  0  0  0  0
   33.1572  -18.8348   35.3080 N   0  0  0  0  0  0  0  0  0  0  0  0
   33.4620  -17.6179   34.5467 C   0  0  0  0  0  0  0  0  0  0  0  0
   28.3873  -23.0773   35.7591 C   0  0  0  0  0  0  0  0  0  0  0  0
   28.6380  -21.8226   36.3156 O   0  0  0  0  0  0  0  0  0  0  0  0
   37.7220  -20.2533   37.3195 S   0  0  0  0  0  0  0  0  0  0  0  0
   38.3538  -18.7810   36.4496 C   0  0  0  0  0  0  0  0  0  0  0  0
 15 16  1  0  0  0
 16  1  1  0  0  0
  1  2  2  0  0  0
  2  3  1  0  0  0
  3  4  2  0  0  0
  4  5  1  0  0  0
  5  6  2  0  0  0
  5  7  1  0  0  0
  7  8  2  0  0  0
  8  9  1  0  0  0
  9 10  2  0  0  0
 10 17  1  0  0  0
 17 18  1  0  0  0
 10 11  1  0  0  0
 11 12  2  0  0  0
 12 13  1  0  0  0
 13 14  1  0  0  0
  6  1  1  0  0  0
 12  7  1  0  0  0
 13  4  1  0  0  0
M  END
> <minimizedAffinity>
-4.39206

> <CNNscore>
0.4546628296

> <CNNaffinity>
3.7784678936

> <CNN_VS>
1.7179288864

> <CNNaffinity_variance>
0.8088218570

$$$$
[H]c1c(OC([H])([H])[H])c([H])c2c3nnc(SC([H])([H])[H])nc3n(C([H])([H])[H])c2c1[H]


 18 20  0  0  0  0  0  0  0  0999 V2000
   36.2267  -14.6003   36.6534 C   0  0  0  0  0  0  0  0  0  0  0  0
   34.9855  -14.4463   36.0736 C   0  0  0  0  0  0  0  0  0  0  0  0
   34.2146  -15.5819   35.8177 C   0  0  0  0  0  0  0  0  0  0  0  0
   34.6642  -16.8575   36.1309 C   0  0  0  0  0  0  0  0  0  0  0  0
   35.9054  -16.9923   36.7091 C   0  0  0  0  0  0  0  0  0  0  0  0
   36.6814  -15.8616   36.9678 C   0  0  0  0  0  0  0  0  0  0  0  0
   36.1255  -18.3342   36.9236 C   0  0  0  0  0  0  0  0  0  0  0  0
   37.1703  -18.9869   37.4563 N   0  0  0  0  0  0  0  0  0  0  0  0
   37.1305  -20.3050   37.5510 N   0  0  0  0  0  0  0  0  0  0  0  0
   36.0443  -20.9434   37.1094 C   0  0  0  0  0  0  0  0  0  0  0  0
   34.9818  -20.3245   36.5712 N   0  0  0  0  0  0  0  0  0  0  0  0
   34.9868  -18.9739   36.4582 C   0  0  0  0  0  0  0  0  0  0  0  0
   34.1027  -18.0821   35.9788 N   0  0  0  0  0  0  0  0  0  0  0  0
   32.7868  -18.3823   35.4030 C   0  0  0  0  0  0  0  0  0  0  0  0
   38.1725  -13.5423   37.7415 C   0  0  0  0  0  0  0  0  0  0  0  0
   37.0367  -13.5159   36.9316 O   0  0  0  0  0  0  0  0  0  0  0  0
   36.0239  -22.7280   37.2516 S   0  0  0  0  0  0  0  0  0  0  0  0
   34.3081  -23.3166   37.0704 C   0  0  0  0  0  0  0  0  0  0  0  0
 15 16  1  0  0  0
 16  1  1  0  0  0
  1  2  2  0  0  0
  2  3  1  0  0  0
  3  4  2  0  0  0
  4  5  1  0  0  0
  5  6  2  0  0  0
  5  7  1  0  0  0
  7  8  2  0  0  0
  8  9  1  0  0  0
  9 10  2  0  0  0
 10 17  1  0  0  0
 17 18  1  0  0  0
 10 11  1  0  0  0
 11 12  2  0  0  0
 12 13  1  0  0  0
 13 14  1  0  0  0
  6  1  1  0  0  0
 12  7  1  0  0  0
 13  4  1  0  0  0
M  END
> <minimizedAffinity>
-5.17688

> <CNNscore>
0.4384897053

> <CNNaffinity>
4.0534772873

> <CNN_VS>
1.7774080038

> <CNNaffinity_variance>
0.4244639277

$$$$
[H]c1c(OC([H])([H])[H])c([H])c2c3nnc(SC([H])([H])[H])nc3n(C([H])([H])[H])c2c1[H]


 18 20  0  0  0  0  0  0  0  0999 V2000
   32.3283  -18.8488   34.8860 C   0  0  0  0  0  0  0  0  0  0  0  0
   33.3120  -18.0960   34.2809 C   0  0  0  0  0  0  0  0  0  0  0  0
   34.5929  -18.0873   34.8363 C   0  0  0  0  0  0  0  0  0  0  0  0
   34.9004  -18.8146   35.9781 C   0  0  0  0  0  0  0  0  0  0  0  0
   33.9064  -19.5603   36.5688 C   0  0  0  0  0  0  0  0  0  0  0  0
   32.6237  -19.5737   36.0191 C   0  0  0  0  0  0  0  0  0  0  0  0
   34.4473  -20.1842   37.6703 C   0  0  0  0  0  0  0  0  0  0  0  0
   33.9039  -21.0132   38.5752 N   0  0  0  0  0  0  0  0  0  0  0  0
   34.6554  -21.4834   39.5561 N   0  0  0  0  0  0  0  0  0  0  0  0
   35.9368  -21.1132   39.6112 C   0  0  0  0  0  0  0  0  0  0  0  0
   36.5138  -20.2866   38.7250 N   0  0  0  0  0  0  0  0  0  0  0  0
   35.7746  -19.7850   37.7057 C   0  0  0  0  0  0  0  0  0  0  0  0
   36.0497  -18.9570   36.6832 N   0  0  0  0  0  0  0  0  0  0  0  0
   37.3447  -18.3313   36.3923 C   0  0  0  0  0  0  0  0  0  0  0  0
   29.9386  -19.4437   35.0423 C   0  0  0  0  0  0  0  0  0  0  0  0
   31.0417  -18.8985   34.3846 O   0  0  0  0  0  0  0  0  0  0  0  0
   36.9255  -21.7673   40.9529 S   0  0  0  0  0  0  0  0  0  0  0  0
   38.6869  -21.4677   40.5909 C   0  0  0  0  0  0  0  0  0  0  0  0
 15 16  1  0  0  0
 16  1  1  0  0  0
  1  2  2  0  0  0
  2  3  1  0  0  0
  3  4  2  0  0  0
  4  5  1  0  0  0
  5  6  2  0  0  0
  5  7  1  0  0  0
  7  8  2  0  0  0
  8  9  1  0  0  0
  9 10  2  0  0  0
 10 17  1  0  0  0
 17 18  1  0  0  0
 10 11  1  0  0  0
 11 12  2  0  0  0
 12 13  1  0  0  0
 13 14  1  0  0  0
  6  1  1  0  0  0
 12  7  1  0  0  0
 13  4  1  0  0  0
M  END
> <minimizedAffinity>
-4.14397

> <CNNscore>
0.4157502651

> <CNNaffinity>
3.7782597542

> <CNN_VS>
1.5708124638

> <CNNaffinity_variance>
0.4393324852

$$$$
[H]c1c(OC([H])([H])[H])c([H])c2c3nnc(SC([H])([H])[H])nc3n(C([H])([H])[H])c2c1[H]


 18 20  0  0  0  0  0  0  0  0999 V2000
   34.5368  -19.0618   34.2989 C   0  0  0  0  0  0  0  0  0  0  0  0
   33.5537  -19.7211   33.5922 C   0  0  0  0  0  0  0  0  0  0  0  0
   32.7404  -20.6372   34.2618 C   0  0  0  0  0  0  0  0  0  0  0  0
   32.8956  -20.9005   35.6161 C   0  0  0  0  0  0  0  0  0  0  0  0
   33.8818  -20.2333   36.3055 C   0  0  0  0  0  0  0  0  0  0  0  0
   34.6985  -19.3161   35.6427 C   0  0  0  0  0  0  0  0  0  0  0  0
   33.8395  -20.6571   37.6146 C   0  0  0  0  0  0  0  0  0  0  0  0
   34.5809  -20.3170   38.6806 N   0  0  0  0  0  0  0  0  0  0  0  0
   34.3310  -20.8816   39.8497 N   0  0  0  0  0  0  0  0  0  0  0  0
   33.3433  -21.7764   39.9276 C   0  0  0  0  0  0  0  0  0  0  0  0
   32.5821  -22.1409   38.8838 N   0  0  0  0  0  0  0  0  0  0  0  0
   32.8089  -21.5829   37.6696 C   0  0  0  0  0  0  0  0  0  0  0  0
   32.2375  -21.7309   36.4620 N   0  0  0  0  0  0  0  0  0  0  0  0
   31.1191  -22.6208   36.1299 C   0  0  0  0  0  0  0  0  0  0  0  0
   36.5853  -17.6885   34.2136 C   0  0  0  0  0  0  0  0  0  0  0  0
   35.3734  -18.1439   33.6933 O   0  0  0  0  0  0  0  0  0  0  0  0
   33.0327  -22.5224   41.5253 S   0  0  0  0  0  0  0  0  0  0  0  0
   32.8635  -24.3251   41.3139 C   0  0  0  0  0  0  0  0  0  0  0  0
 15 16  1  0  0  0
 16  1  1  0  0  0
  1  2  2  0  0  0
  2  3  1  0  0  0
  3  4  2  0  0  0
  4  5  1  0  0  0
  5  6  2  0  0  0
  5  7  1  0  0  0
  7  8  2  0  0  0
  8  9  1  0  0  0
  9 10  2  0  0  0
 10 17  1  0  0  0
 17 18  1  0  0  0
 10 11  1  0  0  0
 11 12  2  0  0  0
 12 13  1  0  0  0
 13 14  1  0  0  0
  6  1  1  0  0  0
 12  7  1  0  0  0
 13  4  1  0  0  0
M  END
> <minimizedAffinity>
-3.99270

> <CNNscore>
0.4066996872

> <CNNaffinity>
3.6974754333

> <CNN_VS>
1.5037621260

> <CNNaffinity_variance>
0.2796542346

$$$$
[H]c1c(OC([H])([H])[H])c([H])c2c3nnc(SC([H])([H])[H])nc3n(C([H])([H])[H])c2c1[H]


 18 20  0  0  0  0  0  0  0  0999 V2000
   35.0428  -18.4011   35.9141 C   0  0  0  0  0  0  0  0  0  0  0  0
   34.3079  -17.7328   34.9581 C   0  0  0  0  0  0  0  0  0  0  0  0
   32.9918  -18.1320   34.7176 C   0  0  0  0  0  0  0  0  0  0  0  0
   32.4063  -19.1808   35.4136 C   0  0  0  0  0  0  0  0  0  0  0  0
   33.1545  -19.8364   36.3641 C   0  0  0  0  0  0  0  0  0  0  0  0
   34.4707  -19.4427   36.6100 C   0  0  0  0  0  0  0  0  0  0  0  0
   32.3669  -20.8241   36.9111 C   0  0  0  0  0  0  0  0  0  0  0  0
   32.6203  -21.7324   37.8663 N   0  0  0  0  0  0  0  0  0  0  0  0
   31.6728  -22.5855   38.2163 N   0  0  0  0  0  0  0  0  0  0  0  0
   30.4898  -22.5119   37.6019 C   0  0  0  0  0  0  0  0  0  0  0  0
   30.2009  -21.6179   36.6432 N   0  0  0  0  0  0  0  0  0  0  0  0
   31.1475  -20.7274   36.2586 C   0  0  0  0  0  0  0  0  0  0  0  0
   31.1701  -19.7342   35.3530 N   0  0  0  0  0  0  0  0  0  0  0  0
   30.0675  -19.3324   34.4721 C   0  0  0  0  0  0  0  0  0  0  0  0
   36.7609  -16.8417   36.7541 C   0  0  0  0  0  0  0  0  0  0  0  0
   36.3496  -18.0535   36.1982 O   0  0  0  0  0  0  0  0  0  0  0  0
   29.2299  -23.6826   38.0992 S   0  0  0  0  0  0  0  0  0  0  0  0
   27.6015  -22.8663   38.0264 C   0  0  0  0  0  0  0  0  0  0  0  0
 15 16  1  0  0  0
 16  1  1  0  0  0
  1  2  2  0  0  0
  2  3  1  0  0  0
  3  4  2  0  0  0
  4  5  1  0  0  0
  5  6  2  0  0  0
  5  7  1  0  0  0
  7  8  2  0  0  0
  8  9  1  0  0  0
  9 10  2  0  0  0
 10 17  1  0  0  0
 17 18  1  0  0  0
 10 11  1  0  0  0
 11 12  2  0  0  0
 12 13  1  0  0  0
 13 14  1  0  0  0
  6  1  1  0  0  0
 12  7  1  0  0  0
 13  4  1  0  0  0
M  END
> <minimizedAffinity>
-4.24377

> <CNNscore>
0.3923818171

> <CNNaffinity>
3.7509930134

> <CNN_VS>
1.4718214273

> <CNNaffinity_variance>
0.8775030971

$$$$
[H]OC1(c2c([H])c([H])c(C([H])([H])C([H])([H])C([H])([H])[H])c([H])c2[H])C([H])([H])C([H])([H])N(C([H])(c2c([H])c([H])c([H])c([H])c2[H])c2c([H])c([H])c([H])c([H])c2[H])C([H])([H])C1([H])[H]


 30 33  0  0  0  0  0  0  0  0999 V2000
   32.7530  -20.1168   35.1424 C   0  0  0  0  0  0  0  0  0  0  0  0
   33.7548  -20.5454   36.0414 O   0  0  0  0  0  0  0  0  0  0  0  0
   33.3711  -19.9978   33.8024 C   0  0  0  0  0  0  0  0  0  0  0  0
   34.5878  -19.1210   33.9223 C   0  0  0  0  0  0  0  0  0  0  0  0
   34.5303  -18.1857   34.9832 N   0  0  0  0  0  0  0  0  0  0  0  0
   33.3285  -17.7153   35.4835 C   0  0  0  0  0  0  0  0  0  0  0  0
   32.2620  -18.7785   35.6044 C   0  0  0  0  0  0  0  0  0  0  0  0
   33.7259  -21.5323   36.1258 H   0  0  0  0  0  0  0  0  0  0  0  0
   29.7614  -23.1839   35.2961 C   0  0  0  0  0  0  0  0  0  0  0  0
   29.4541  -21.8879   35.6639 C   0  0  0  0  0  0  0  0  0  0  0  0
   30.4034  -20.8694   35.6044 C   0  0  0  0  0  0  0  0  0  0  0  0
   31.6911  -21.1314   35.1726 C   0  0  0  0  0  0  0  0  0  0  0  0
   31.9686  -22.4300   34.8087 C   0  0  0  0  0  0  0  0  0  0  0  0
   31.0443  -23.4460   34.8612 C   0  0  0  0  0  0  0  0  0  0  0  0
   28.7510  -24.2446   35.4891 C   0  0  0  0  0  0  0  0  0  0  0  0
   27.0011  -24.3151   37.2313 C   0  0  0  0  0  0  0  0  0  0  0  0
   27.4189  -23.6681   35.9386 C   0  0  0  0  0  0  0  0  0  0  0  0
   35.7575  -17.9409   35.6307 C   0  0  0  0  0  0  0  0  0  0  0  0
   35.8255  -16.5824   36.3088 C   0  0  0  0  0  0  0  0  0  0  0  0
   34.8589  -15.6142   36.0270 C   0  0  0  0  0  0  0  0  0  0  0  0
   34.9170  -14.3666   36.5835 C   0  0  0  0  0  0  0  0  0  0  0  0
   35.9667  -14.0874   37.4397 C   0  0  0  0  0  0  0  0  0  0  0  0
   36.9086  -15.0335   37.7184 C   0  0  0  0  0  0  0  0  0  0  0  0
   36.8392  -16.3125   37.1412 C   0  0  0  0  0  0  0  0  0  0  0  0
   36.1783  -18.8749   36.6735 C   0  0  0  0  0  0  0  0  0  0  0  0
   35.4803  -18.9592   37.8751 C   0  0  0  0  0  0  0  0  0  0  0  0
   35.8002  -19.8672   38.8441 C   0  0  0  0  0  0  0  0  0  0  0  0
   36.8539  -20.7569   38.6546 C   0  0  0  0  0  0  0  0  0  0  0  0
   37.5552  -20.6862   37.4843 C   0  0  0  0  0  0  0  0  0  0  0  0
   37.2108  -19.7523   36.5187 C   0  0  0  0  0  0  0  0  0  0  0  0
 16 17  1  0  0  0
 17 15  1  0  0  0
 15  9  1  0  0  0
  9 10  2  0  0  0
 10 11  1  0  0  0
 11 12  2  0  0  0
 12  1  1  0  0  0
  1  2  1  0  0  0
  1  3  1  0  0  0
  3  4  1  0  0  0
  4  5  1  0  0  0
  5 18  1  0  0  0
 18 19  1  0  0  0
 19 20  2  0  0  0
 20 21  1  0  0  0
 21 22  2  0  0  0
 22 23  1  0  0  0
 23 24  2  0  0  0
 18 25  1  0  0  0
 25 26  2  0  0  0
 26 27  1  0  0  0
 27 28  2  0  0  0
 28 29  1  0  0  0
 29 30  2  0  0  0
  5  6  1  0  0  0
  6  7  1  0  0  0
 12 13  1  0  0  0
 13 14  2  0  0  0
 14  9  1  0  0  0
  7  1  1  0  0  0
 24 19  1  0  0  0
 30 25  1  0  0  0
  2  8  1  0  0  0
M  END
> <minimizedAffinity>
-7.47498

> <CNNscore>
0.6107577682

> <CNNaffinity>
5.1778345108

> <CNN_VS>
3.1624026299

> <CNNaffinity_variance>
0.3329629004

$$$$
[H]OC1(c2c([H])c([H])c(C([H])([H])C([H])([H])C([H])([H])[H])c([H])c2[H])C([H])([H])C([H])([H])N(C([H])(c2c([H])c([H])c([H])c([H])c2[H])c2c([H])c([H])c([H])c([H])c2[H])C([H])([H])C1([H])[H]


 30 33  0  0  0  0  0  0  0  0999 V2000
   36.1736  -19.1774   35.4887 C   0  0  0  0  0  0  0  0  0  0  0  0
   36.6044  -20.4790   35.8287 O   0  0  0  0  0  0  0  0  0  0  0  0
   36.7686  -18.8340   34.1772 C   0  0  0  0  0  0  0  0  0  0  0  0
   38.2549  -19.0497   34.2647 C   0  0  0  0  0  0  0  0  0  0  0  0
   38.7883  -18.9130   35.5686 N   0  0  0  0  0  0  0  0  0  0  0  0
   38.1795  -18.1284   36.5329 C   0  0  0  0  0  0  0  0  0  0  0  0
   36.6727  -18.2372   36.5434 C   0  0  0  0  0  0  0  0  0  0  0  0
   35.9266  -21.1404   35.5373 H   0  0  0  0  0  0  0  0  0  0  0  0
   31.9002  -19.3214   35.1761 C   0  0  0  0  0  0  0  0  0  0  0  0
   32.5425  -19.8974   36.2554 C   0  0  0  0  0  0  0  0  0  0  0  0
   33.9286  -19.8473   36.3898 C   0  0  0  0  0  0  0  0  0  0  0  0
   34.7059  -19.2145   35.4365 C   0  0  0  0  0  0  0  0  0  0  0  0
   34.0399  -18.6459   34.3741 C   0  0  0  0  0  0  0  0  0  0  0  0
   32.6739  -18.6862   34.2265 C   0  0  0  0  0  0  0  0  0  0  0  0
   30.4418  -19.5052   35.0255 C   0  0  0  0  0  0  0  0  0  0  0  0
   28.8157  -20.8170   36.3437 C   0  0  0  0  0  0  0  0  0  0  0  0
   30.0127  -20.9039   35.4360 C   0  0  0  0  0  0  0  0  0  0  0  0
   39.8434  -19.7941   35.8777 C   0  0  0  0  0  0  0  0  0  0  0  0
   39.9004  -20.1812   37.3463 C   0  0  0  0  0  0  0  0  0  0  0  0
   41.0353  -19.8790   38.1026 C   0  0  0  0  0  0  0  0  0  0  0  0
   41.1384  -20.2541   39.4135 C   0  0  0  0  0  0  0  0  0  0  0  0
   40.0804  -20.9461   39.9744 C   0  0  0  0  0  0  0  0  0  0  0  0
   38.9704  -21.2381   39.2377 C   0  0  0  0  0  0  0  0  0  0  0  0
   38.8748  -20.8477   37.8915 C   0  0  0  0  0  0  0  0  0  0  0  0
   39.8922  -21.0751   35.1751 C   0  0  0  0  0  0  0  0  0  0  0  0
   40.9742  -21.3972   34.3604 C   0  0  0  0  0  0  0  0  0  0  0  0
   41.0890  -22.6106   33.7438 C   0  0  0  0  0  0  0  0  0  0  0  0
   40.1089  -23.5838   33.9172 C   0  0  0  0  0  0  0  0  0  0  0  0
   39.0360  -23.2848   34.7084 C   0  0  0  0  0  0  0  0  0  0  0  0
   38.9432  -22.0436   35.3200 C   0  0  0  0  0  0  0  0  0  0  0  0
 16 17  1  0  0  0
 17 15  1  0  0  0
 15  9  1  0  0  0
  9 10  2  0  0  0
 10 11  1  0  0  0
 11 12  2  0  0  0
 12  1  1  0  0  0
  1  2  1  0  0  0
  1  3  1  0  0  0
  3  4  1  0  0  0
  4  5  1  0  0  0
  5 18  1  0  0  0
 18 19  1  0  0  0
 19 20  2  0  0  0
 20 21  1  0  0  0
 21 22  2  0  0  0
 22 23  1  0  0  0
 23 24  2  0  0  0
 18 25  1  0  0  0
 25 26  2  0  0  0
 26 27  1  0  0  0
 27 28  2  0  0  0
 28 29  1  0  0  0
 29 30  2  0  0  0
  5  6  1  0  0  0
  6  7  1  0  0  0
 12 13  1  0  0  0
 13 14  2  0  0  0
 14  9  1  0  0  0
  7  1  1  0  0  0
 24 19  1  0  0  0
 30 25  1  0  0  0
  2  8  1  0  0  0
M  END
> <minimizedAffinity>
-6.01626

> <CNNscore>
0.5755748153

> <CNNaffinity>
4.9722337723

> <CNN_VS>
2.8618924618

> <CNNaffinity_variance>
0.2265997231

$$$$
[H]OC1(c2c([H])c([H])c(C([H])([H])C([H])([H])C([H])([H])[H])c([H])c2[H])C([H])([H])C([H])([H])N(C([H])(c2c([H])c([H])c([H])c([H])c2[H])c2c([H])c([H])c([H])c([H])c2[H])C([H])([H])C1([H])[H]


 30 33  0  0  0  0  0  0  0  0999 V2000
   33.6020  -18.8854   35.3250 C   0  0  0  0  0  0  0  0  0  0  0  0
   34.1966  -19.8551   36.1626 O   0  0  0  0  0  0  0  0  0  0  0  0
   32.1805  -18.7601   35.7192 C   0  0  0  0  0  0  0  0  0  0  0  0
   31.5653  -20.1329   35.7018 C   0  0  0  0  0  0  0  0  0  0  0  0
   32.1839  -21.0379   34.8063 N   0  0  0  0  0  0  0  0  0  0  0  0
   32.8644  -20.6076   33.6804 C   0  0  0  0  0  0  0  0  0  0  0  0
   33.7041  -19.3731   33.9117 C   0  0  0  0  0  0  0  0  0  0  0  0
   34.6252  -19.4085   36.9363 H   0  0  0  0  0  0  0  0  0  0  0  0
   35.6621  -15.1941   36.0397 C   0  0  0  0  0  0  0  0  0  0  0  0
   36.3709  -16.3605   35.8244 C   0  0  0  0  0  0  0  0  0  0  0  0
   35.7251  -17.5690   35.5708 C   0  0  0  0  0  0  0  0  0  0  0  0
   34.3440  -17.6340   35.5287 C   0  0  0  0  0  0  0  0  0  0  0  0
   33.6631  -16.4566   35.7427 C   0  0  0  0  0  0  0  0  0  0  0  0
   34.2844  -15.2565   35.9939 C   0  0  0  0  0  0  0  0  0  0  0  0
   36.3940  -13.9676   36.4182 C   0  0  0  0  0  0  0  0  0  0  0  0
   38.4266  -13.2886   37.6470 C   0  0  0  0  0  0  0  0  0  0  0  0
   37.2120  -14.1762   37.6816 C   0  0  0  0  0  0  0  0  0  0  0  0
   32.2468  -22.3722   35.2542 C   0  0  0  0  0  0  0  0  0  0  0  0
   32.9225  -22.5272   36.6067 C   0  0  0  0  0  0  0  0  0  0  0  0
   34.1948  -23.0981   36.6883 C   0  0  0  0  0  0  0  0  0  0  0  0
   34.8114  -23.2948   37.8927 C   0  0  0  0  0  0  0  0  0  0  0  0
   34.1360  -22.9102   39.0368 C   0  0  0  0  0  0  0  0  0  0  0  0
   32.8955  -22.3491   38.9576 C   0  0  0  0  0  0  0  0  0  0  0  0
   32.2711  -22.1513   37.7147 C   0  0  0  0  0  0  0  0  0  0  0  0
   30.9896  -23.1028   35.4044 C   0  0  0  0  0  0  0  0  0  0  0  0
   29.7922  -22.4217   35.6057 C   0  0  0  0  0  0  0  0  0  0  0  0
   28.5894  -23.0645   35.6806 C   0  0  0  0  0  0  0  0  0  0  0  0
   28.5220  -24.4490   35.5522 C   0  0  0  0  0  0  0  0  0  0  0  0
   29.6869  -25.1363   35.3601 C   0  0  0  0  0  0  0  0  0  0  0  0
   30.8949  -24.4585   35.2911 C   0  0  0  0  0  0  0  0  0  0  0  0
 16 17  1  0  0  0
 17 15  1  0  0  0
 15  9  1  0  0  0
  9 10  2  0  0  0
 10 11  1  0  0  0
 11 12  2  0  0  0
 12  1  1  0  0  0
  1  2  1  0  0  0
  1  3  1  0  0  0
  3  4  1  0  0  0
  4  5  1  0  0  0
  5 18  1  0  0  0
 18 19  1  0  0  0
 19 20  2  0  0  0
 20 21  1  0  0  0
 21 22  2  0  0  0
 22 23  1  0  0  0
 23 24  2  0  0  0
 18 25  1  0  0  0
 25 26  2  0  0  0
 26 27  1  0  0  0
 27 28  2  0  0  0
 28 29  1  0  0  0
 29 30  2  0  0  0
  5  6  1  0  0  0
  6  7  1  0  0  0
 12 13  1  0  0  0
 13 14  2  0  0  0
 14  9  1  0  0  0
  7  1  1  0  0  0
 24 19  1  0  0  0
 30 25  1  0  0  0
  2  8  1  0  0  0
M  END
> <minimizedAffinity>
-6.81383

> <CNNscore>
0.4828719497

> <CNNaffinity>
4.8427910805

> <CNN_VS>
2.3384480476

> <CNNaffinity_variance>
0.3097580075

$$$$
[H]OC1(c2c([H])c([H])c(C([H])([H])C([H])([H])C([H])([H])[H])c([H])c2[H])C([H])([H])C([H])([H])N(C([H])(c2c([H])c([H])c([H])c([H])c2[H])c2c([H])c([H])c([H])c([H])c2[H])C([H])([H])C1([H])[H]


 30 33  0  0  0  0  0  0  0  0999 V2000
   32.5881  -19.7839   35.4190 C   0  0  0  0  0  0  0  0  0  0  0  0
   33.3491  -20.0617   36.5763 O   0  0  0  0  0  0  0  0  0  0  0  0
   33.4453  -20.0501   34.2416 C   0  0  0  0  0  0  0  0  0  0  0  0
   34.7249  -19.2766   34.4075 C   0  0  0  0  0  0  0  0  0  0  0  0
   34.6019  -18.1081   35.1968 N   0  0  0  0  0  0  0  0  0  0  0  0
   33.4020  -17.4296   35.3227 C   0  0  0  0  0  0  0  0  0  0  0  0
   32.2016  -18.3367   35.4587 C   0  0  0  0  0  0  0  0  0  0  0  0
   33.1770  -20.9916   36.8722 H   0  0  0  0  0  0  0  0  0  0  0  0
   29.2449  -22.4588   35.6386 C   0  0  0  0  0  0  0  0  0  0  0  0
   29.0505  -21.0913   35.6773 C   0  0  0  0  0  0  0  0  0  0  0  0
   30.1187  -20.2009   35.5882 C   0  0  0  0  0  0  0  0  0  0  0  0
   31.4147  -20.6668   35.4587 C   0  0  0  0  0  0  0  0  0  0  0  0
   31.5791  -22.0332   35.4188 C   0  0  0  0  0  0  0  0  0  0  0  0
   30.5367  -22.9250   35.5052 C   0  0  0  0  0  0  0  0  0  0  0  0
   28.0903  -23.3554   35.8536 C   0  0  0  0  0  0  0  0  0  0  0  0
   27.8749  -23.7465   38.2833 C   0  0  0  0  0  0  0  0  0  0  0  0
   27.3230  -22.9818   37.1108 C   0  0  0  0  0  0  0  0  0  0  0  0
   35.7153  -17.8163   36.0094 C   0  0  0  0  0  0  0  0  0  0  0  0
   37.0419  -18.2260   35.3912 C   0  0  0  0  0  0  0  0  0  0  0  0
   37.3241  -17.8935   34.0641 C   0  0  0  0  0  0  0  0  0  0  0  0
   38.4876  -18.2868   33.4632 C   0  0  0  0  0  0  0  0  0  0  0  0
   39.3844  -19.0282   34.2108 C   0  0  0  0  0  0  0  0  0  0  0  0
   39.1114  -19.3498   35.5078 C   0  0  0  0  0  0  0  0  0  0  0  0
   37.9127  -18.9404   36.1155 C   0  0  0  0  0  0  0  0  0  0  0  0
   35.9272  -16.4249   36.4045 C   0  0  0  0  0  0  0  0  0  0  0  0
   36.5840  -16.1164   37.5926 C   0  0  0  0  0  0  0  0  0  0  0  0
   36.8623  -14.8310   37.9614 C   0  0  0  0  0  0  0  0  0  0  0  0
   36.4928  -13.7680   37.1420 C   0  0  0  0  0  0  0  0  0  0  0  0
   35.8418  -14.0497   35.9745 C   0  0  0  0  0  0  0  0  0  0  0  0
   35.5691  -15.3641   35.6260 C   0  0  0  0  0  0  0  0  0  0  0  0
 16 17  1  0  0  0
 17 15  1  0  0  0
 15  9  1  0  0  0
  9 10  2  0  0  0
 10 11  1  0  0  0
 11 12  2  0  0  0
 12  1  1  0  0  0
  1  2  1  0  0  0
  1  3  1  0  0  0
  3  4  1  0  0  0
  4  5  1  0  0  0
  5 18  1  0  0  0
 18 19  1  0  0  0
 19 20  2  0  0  0
 20 21  1  0  0  0
 21 22  2  0  0  0
 22 23  1  0  0  0
 23 24  2  0  0  0
 18 25  1  0  0  0
 25 26  2  0  0  0
 26 27  1  0  0  0
 27 28  2  0  0  0
 28 29  1  0  0  0
 29 30  2  0  0  0
  5  6  1  0  0  0
  6  7  1  0  0  0
 12 13  1  0  0  0
 13 14  2  0  0  0
 14  9  1  0  0  0
  7  1  1  0  0  0
 24 19  1  0  0  0
 30 25  1  0  0  0
  2  8  1  0  0  0
M  END
> <minimizedAffinity>
-7.74660

> <CNNscore>
0.4538136423

> <CNNaffinity>
5.0087370872

> <CNN_VS>
2.2730331421

> <CNNaffinity_variance>
0.4795578420

$$$$
[H]OC1(c2c([H])c([H])c(C([H])([H])C([H])([H])C([H])([H])[H])c([H])c2[H])C([H])([H])C([H])([H])N(C([H])(c2c([H])c([H])c([H])c([H])c2[H])c2c([H])c([H])c([H])c([H])c2[H])C([H])([H])C1([H])[H]


 30 33  0  0  0  0  0  0  0  0999 V2000
   39.4365  -19.1313   36.2269 C   0  0  0  0  0  0  0  0  0  0  0  0
   39.0282  -17.8092   36.5111 O   0  0  0  0  0  0  0  0  0  0  0  0
   39.6449  -19.2341   34.7647 C   0  0  0  0  0  0  0  0  0  0  0  0
   38.3964  -18.7527   34.0772 C   0  0  0  0  0  0  0  0  0  0  0  0
   37.2140  -18.9071   34.8399 N   0  0  0  0  0  0  0  0  0  0  0  0
   37.0932  -19.8779   35.8192 C   0  0  0  0  0  0  0  0  0  0  0  0
   38.3377  -20.0549   36.6572 C   0  0  0  0  0  0  0  0  0  0  0  0
   39.8177  -17.2625   36.7550 H   0  0  0  0  0  0  0  0  0  0  0  0
   43.0369  -19.9754   38.3959 C   0  0  0  0  0  0  0  0  0  0  0  0
   42.9866  -18.9177   37.5083 C   0  0  0  0  0  0  0  0  0  0  0  0
   41.8228  -18.6110   36.8058 C   0  0  0  0  0  0  0  0  0  0  0  0
   40.6763  -19.3653   36.9792 C   0  0  0  0  0  0  0  0  0  0  0  0
   40.7534  -20.4104   37.8723 C   0  0  0  0  0  0  0  0  0  0  0  0
   41.8929  -20.7262   38.5731 C   0  0  0  0  0  0  0  0  0  0  0  0
   44.3274  -20.3255   39.0247 C   0  0  0  0  0  0  0  0  0  0  0  0
   43.7030  -18.8959   40.9403 C   0  0  0  0  0  0  0  0  0  0  0  0
   44.2488  -20.2398   40.5398 C   0  0  0  0  0  0  0  0  0  0  0  0
   36.2658  -17.8764   34.6870 C   0  0  0  0  0  0  0  0  0  0  0  0
   34.8293  -18.3721   34.6615 C   0  0  0  0  0  0  0  0  0  0  0  0
   33.8679  -17.7631   35.4716 C   0  0  0  0  0  0  0  0  0  0  0  0
   32.5776  -18.2142   35.5077 C   0  0  0  0  0  0  0  0  0  0  0  0
   32.2477  -19.2979   34.7141 C   0  0  0  0  0  0  0  0  0  0  0  0
   33.1849  -19.8904   33.9199 C   0  0  0  0  0  0  0  0  0  0  0  0
   34.5079  -19.4187   33.8904 C   0  0  0  0  0  0  0  0  0  0  0  0
   36.2506  -16.8081   35.6847 C   0  0  0  0  0  0  0  0  0  0  0  0
   36.1886  -15.4731   35.2946 C   0  0  0  0  0  0  0  0  0  0  0  0
   36.1022  -14.4513   36.1970 C   0  0  0  0  0  0  0  0  0  0  0  0
   36.0698  -14.7192   37.5626 C   0  0  0  0  0  0  0  0  0  0  0  0
   36.1357  -16.0227   37.9659 C   0  0  0  0  0  0  0  0  0  0  0  0
   36.2260  -17.0405   37.0283 C   0  0  0  0  0  0  0  0  0  0  0  0
 16 17  1  0  0  0
 17 15  1  0  0  0
 15  9  1  0  0  0
  9 10  2  0  0  0
 10 11  1  0  0  0
 11 12  2  0  0  0
 12  1  1  0  0  0
  1  2  1  0  0  0
  1  3  1  0  0  0
  3  4  1  0  0  0
  4  5  1  0  0  0
  5 18  1  0  0  0
 18 19  1  0  0  0
 19 20  2  0  0  0
 20 21  1  0  0  0
 21 22  2  0  0  0
 22 23  1  0  0  0
 23 24  2  0  0  0
 18 25  1  0  0  0
 25 26  2  0  0  0
 26 27  1  0  0  0
 27 28  2  0  0  0
 28 29  1  0  0  0
 29 30  2  0  0  0
  5  6  1  0  0  0
  6  7  1  0  0  0
 12 13  1  0  0  0
 13 14  2  0  0  0
 14  9  1  0  0  0
  7  1  1  0  0  0
 24 19  1  0  0  0
 30 25  1  0  0  0
  2  8  1  0  0  0
M  END
> <minimizedAffinity>
-6.84826

> <CNNscore>
0.4162823558

> <CNNaffinity>
4.7951455116

> <CNN_VS>
1.9961345196

> <CNNaffinity_variance>
0.4553696513

$$$$
[H]OC1(c2c([H])c([H])c(C([H])([H])C([H])([H])C([H])([H])[H])c([H])c2[H])C([H])([H])C([H])([H])N(C([H])(c2c([H])c([H])c([H])c([H])c2[H])c2c([H])c([H])c([H])c([H])c2[H])C([H])([H])C1([H])[H]


 30 33  0  0  0  0  0  0  0  0999 V2000
   36.3244  -19.3466   35.6026 C   0  0  0  0  0  0  0  0  0  0  0  0
   36.6857  -20.6255   36.0812 O   0  0  0  0  0  0  0  0  0  0  0  0
   36.9664  -19.1619   34.2814 C   0  0  0  0  0  0  0  0  0  0  0  0
   38.4385  -19.4329   34.4324 C   0  0  0  0  0  0  0  0  0  0  0  0
   38.9459  -19.1908   35.7314 N   0  0  0  0  0  0  0  0  0  0  0  0
   38.3511  -18.2881   36.5959 C   0  0  0  0  0  0  0  0  0  0  0  0
   36.8410  -18.3289   36.5737 C   0  0  0  0  0  0  0  0  0  0  0  0
   35.9851  -21.2823   35.8369 H   0  0  0  0  0  0  0  0  0  0  0  0
   32.0584  -19.3124   35.1774 C   0  0  0  0  0  0  0  0  0  0  0  0
   32.6491  -19.9451   36.2545 C   0  0  0  0  0  0  0  0  0  0  0  0
   34.0320  -19.9537   36.4255 C   0  0  0  0  0  0  0  0  0  0  0  0
   34.8583  -19.3241   35.5121 C   0  0  0  0  0  0  0  0  0  0  0  0
   34.2432  -18.6985   34.4510 C   0  0  0  0  0  0  0  0  0  0  0  0
   32.8811  -18.6804   34.2677 C   0  0  0  0  0  0  0  0  0  0  0  0
   30.5986  -19.4340   34.9843 C   0  0  0  0  0  0  0  0  0  0  0  0
   28.8533  -20.6659   36.2249 C   0  0  0  0  0  0  0  0  0  0  0  0
   30.0969  -20.8097   35.3901 C   0  0  0  0  0  0  0  0  0  0  0  0
   39.9510  -20.0823   36.1559 C   0  0  0  0  0  0  0  0  0  0  0  0
   41.3519  -19.6556   35.7495 C   0  0  0  0  0  0  0  0  0  0  0  0
   42.3827  -20.5975   35.7092 C   0  0  0  0  0  0  0  0  0  0  0  0
   43.6637  -20.2385   35.3933 C   0  0  0  0  0  0  0  0  0  0  0  0
   43.9129  -18.9074   35.1124 C   0  0  0  0  0  0  0  0  0  0  0  0
   42.9062  -17.9879   35.1477 C   0  0  0  0  0  0  0  0  0  0  0  0
   41.5934  -18.3677   35.4734 C   0  0  0  0  0  0  0  0  0  0  0  0
   40.0672  -20.3494   37.5883 C   0  0  0  0  0  0  0  0  0  0  0  0
   39.2407  -21.2843   38.2056 C   0  0  0  0  0  0  0  0  0  0  0  0
   39.3660  -21.6117   39.5258 C   0  0  0  0  0  0  0  0  0  0  0  0
   40.3463  -21.0104   40.3101 C   0  0  0  0  0  0  0  0  0  0  0  0
   41.1636  -20.0857   39.7243 C   0  0  0  0  0  0  0  0  0  0  0  0
   41.0124  -19.7699   38.3824 C   0  0  0  0  0  0  0  0  0  0  0  0
 16 17  1  0  0  0
 17 15  1  0  0  0
 15  9  1  0  0  0
  9 10  2  0  0  0
 10 11  1  0  0  0
 11 12  2  0  0  0
 12  1  1  0  0  0
  1  2  1  0  0  0
  1  3  1  0  0  0
  3  4  1  0  0  0
  4  5  1  0  0  0
  5 18  1  0  0  0
 18 19  1  0  0  0
 19 20  2  0  0  0
 20 21  1  0  0  0
 21 22  2  0  0  0
 22 23  1  0  0  0
 23 24  2  0  0  0
 18 25  1  0  0  0
 25 26  2  0  0  0
 26 27  1  0  0  0
 27 28  2  0  0  0
 28 29  1  0  0  0
 29 30  2  0  0  0
  5  6  1  0  0  0
  6  7  1  0  0  0
 12 13  1  0  0  0
 13 14  2  0  0  0
 14  9  1  0  0  0
  7  1  1  0  0  0
 24 19  1  0  0  0
 30 25  1  0  0  0
  2  8  1  0  0  0
M  END
> <minimizedAffinity>
-5.83903

> <CNNscore>
0.3994407654

> <CNNaffinity>
4.6073026657

> <CNN_VS>
1.8403445482

> <CNNaffinity_variance>
0.5201721191

$$$$
[H]OC1(c2c([H])c([H])c(C([H])([H])C([H])([H])C([H])([H])[H])c([H])c2[H])C([H])([H])C([H])([H])N(C([H])(c2c([H])c([H])c([H])c([H])c2[H])c2c([H])c([H])c([H])c([H])c2[H])C([H])([H])C1([H])[H]


 30 33  0  0  0  0  0  0  0  0999 V2000
   37.6770  -19.7494   36.3387 C   0  0  0  0  0  0  0  0  0  0  0  0
   38.3647  -20.6037   35.4484 O   0  0  0  0  0  0  0  0  0  0  0  0
   38.4681  -18.5049   36.4704 C   0  0  0  0  0  0  0  0  0  0  0  0
   39.8749  -18.8802   36.8491 C   0  0  0  0  0  0  0  0  0  0  0  0
   39.9829  -20.1046   37.5511 N   0  0  0  0  0  0  0  0  0  0  0  0
   38.9403  -20.6125   38.3068 C   0  0  0  0  0  0  0  0  0  0  0  0
   37.5839  -20.4437   37.6633 C   0  0  0  0  0  0  0  0  0  0  0  0
   38.0114  -20.4816   34.5307 H   0  0  0  0  0  0  0  0  0  0  0  0
   33.7783  -18.9254   34.7571 C   0  0  0  0  0  0  0  0  0  0  0  0
   34.8743  -18.9901   33.9181 C   0  0  0  0  0  0  0  0  0  0  0  0
   36.1485  -19.2753   34.4049 C   0  0  0  0  0  0  0  0  0  0  0  0
   36.3521  -19.5023   35.7542 C   0  0  0  0  0  0  0  0  0  0  0  0
   35.2425  -19.4356   36.5664 C   0  0  0  0  0  0  0  0  0  0  0  0
   33.9792  -19.1556   36.1026 C   0  0  0  0  0  0  0  0  0  0  0  0
   32.4738  -18.5055   34.2045 C   0  0  0  0  0  0  0  0  0  0  0  0
   31.2944  -20.6195   34.6974 C   0  0  0  0  0  0  0  0  0  0  0  0
   31.3193  -19.1386   34.9630 C   0  0  0  0  0  0  0  0  0  0  0  0
   41.1296  -20.8661   37.2508 C   0  0  0  0  0  0  0  0  0  0  0  0
   42.3079  -20.5755   38.1658 C   0  0  0  0  0  0  0  0  0  0  0  0
   42.1014  -19.9136   39.3784 C   0  0  0  0  0  0  0  0  0  0  0  0
   43.1447  -19.5953   40.2029 C   0  0  0  0  0  0  0  0  0  0  0  0
   44.4197  -19.9495   39.8007 C   0  0  0  0  0  0  0  0  0  0  0  0
   44.6216  -20.5994   38.6187 C   0  0  0  0  0  0  0  0  0  0  0  0
   43.5424  -20.9217   37.7791 C   0  0  0  0  0  0  0  0  0  0  0  0
   41.0108  -22.3226   37.2837 C   0  0  0  0  0  0  0  0  0  0  0  0
   40.8460  -23.0483   36.1070 C   0  0  0  0  0  0  0  0  0  0  0  0
   40.8013  -24.4134   36.0904 C   0  0  0  0  0  0  0  0  0  0  0  0
   40.9248  -25.1361   37.2738 C   0  0  0  0  0  0  0  0  0  0  0  0
   41.0812  -24.4420   38.4400 C   0  0  0  0  0  0  0  0  0  0  0  0
   41.1201  -23.0558   38.4283 C   0  0  0  0  0  0  0  0  0  0  0  0
 16 17  1  0  0  0
 17 15  1  0  0  0
 15  9  1  0  0  0
  9 10  2  0  0  0
 10 11  1  0  0  0
 11 12  2  0  0  0
 12  1  1  0  0  0
  1  2  1  0  0  0
  1  3  1  0  0  0
  3  4  1  0  0  0
  4  5  1  0  0  0
  5 18  1  0  0  0
 18 19  1  0  0  0
 19 20  2  0  0  0
 20 21  1  0  0  0
 21 22  2  0  0  0
 22 23  1  0  0  0
 23 24  2  0  0  0
 18 25  1  0  0  0
 25 26  2  0  0  0
 26 27  1  0  0  0
 27 28  2  0  0  0
 28 29  1  0  0  0
 29 30  2  0  0  0
  5  6  1  0  0  0
  6  7  1  0  0  0
 12 13  1  0  0  0
 13 14  2  0  0  0
 14  9  1  0  0  0
  7  1  1  0  0  0
 24 19  1  0  0  0
 30 25  1  0  0  0
  2  8  1  0  0  0
M  END
> <minimizedAffinity>
-4.51492

> <CNNscore>
0.3994016647

> <CNNaffinity>
4.6120195389

> <CNN_VS>
1.8420482874

> <CNNaffinity_variance>
0.2175605297

$$$$
[H]OC1(c2c([H])c([H])c(C([H])([H])C([H])([H])C([H])([H])[H])c([H])c2[H])C([H])([H])C([H])([H])N(C([H])(c2c([H])c([H])c([H])c([H])c2[H])c2c([H])c([H])c([H])c([H])c2[H])C([H])([H])C1([H])[H]


 30 33  0  0  0  0  0  0  0  0999 V2000
   38.2488  -20.1131   35.5568 C   0  0  0  0  0  0  0  0  0  0  0  0
   37.0834  -20.5414   36.2304 O   0  0  0  0  0  0  0  0  0  0  0  0
   38.9183  -19.1058   36.4107 C   0  0  0  0  0  0  0  0  0  0  0  0
   37.9129  -18.0423   36.7591 C   0  0  0  0  0  0  0  0  0  0  0  0
   36.8784  -17.8830   35.8061 N   0  0  0  0  0  0  0  0  0  0  0  0
   37.0501  -18.2148   34.4733 C   0  0  0  0  0  0  0  0  0  0  0  0
   37.8285  -19.4918   34.2596 C   0  0  0  0  0  0  0  0  0  0  0  0
   37.2822  -21.3611   36.7506 H   0  0  0  0  0  0  0  0  0  0  0  0
   40.6604  -23.6296   35.1110 C   0  0  0  0  0  0  0  0  0  0  0  0
   39.7493  -23.2776   34.1336 C   0  0  0  0  0  0  0  0  0  0  0  0
   38.9677  -22.1293   34.2460 C   0  0  0  0  0  0  0  0  0  0  0  0
   39.0834  -21.3041   35.3501 C   0  0  0  0  0  0  0  0  0  0  0  0
   40.0014  -21.6765   36.3063 C   0  0  0  0  0  0  0  0  0  0  0  0
   40.7799  -22.8052   36.2110 C   0  0  0  0  0  0  0  0  0  0  0  0
   41.3774  -24.9163   34.9954 C   0  0  0  0  0  0  0  0  0  0  0  0
   43.3464  -24.1209   33.7331 C   0  0  0  0  0  0  0  0  0  0  0  0
   42.1362  -25.0137   33.6825 C   0  0  0  0  0  0  0  0  0  0  0  0
   35.6127  -17.5772   36.3440 C   0  0  0  0  0  0  0  0  0  0  0  0
   35.2468  -16.1060   36.2365 C   0  0  0  0  0  0  0  0  0  0  0  0
   36.2496  -15.1343   36.2760 C   0  0  0  0  0  0  0  0  0  0  0  0
   35.9514  -13.8007   36.2288 C   0  0  0  0  0  0  0  0  0  0  0  0
   34.6199  -13.4373   36.1401 C   0  0  0  0  0  0  0  0  0  0  0  0
   33.6406  -14.3856   36.0975 C   0  0  0  0  0  0  0  0  0  0  0  0
   33.9581  -15.7532   36.1464 C   0  0  0  0  0  0  0  0  0  0  0  0
   34.4498  -18.2692   35.7912 C   0  0  0  0  0  0  0  0  0  0  0  0
   33.9779  -17.9593   34.5186 C   0  0  0  0  0  0  0  0  0  0  0  0
   32.9386  -18.6315   33.9407 C   0  0  0  0  0  0  0  0  0  0  0  0
   32.3084  -19.6707   34.6194 C   0  0  0  0  0  0  0  0  0  0  0  0
   32.7529  -19.9862   35.8721 C   0  0  0  0  0  0  0  0  0  0  0  0
   33.8082  -19.2851   36.4361 C   0  0  0  0  0  0  0  0  0  0  0  0
 16 17  1  0  0  0
 17 15  1  0  0  0
 15  9  1  0  0  0
  9 10  2  0  0  0
 10 11  1  0  0  0
 11 12  2  0  0  0
 12  1  1  0  0  0
  1  2  1  0  0  0
  1  3  1  0  0  0
  3  4  1  0  0  0
  4  5  1  0  0  0
  5 18  1  0  0  0
 18 19  1  0  0  0
 19 20  2  0  0  0
 20 21  1  0  0  0
 21 22  2  0  0  0
 22 23  1  0  0  0
 23 24  2  0  0  0
 18 25  1  0  0  0
 25 26  2  0  0  0
 26 27  1  0  0  0
 27 28  2  0  0  0
 28 29  1  0  0  0
 29 30  2  0  0  0
  5  6  1  0  0  0
  6  7  1  0  0  0
 12 13  1  0  0  0
 13 14  2  0  0  0
 14  9  1  0  0  0
  7  1  1  0  0  0
 24 19  1  0  0  0
 30 25  1  0  0  0
  2  8  1  0  0  0
M  END
> <minimizedAffinity>
-6.06233

> <CNNscore>
0.3978806436

> <CNNaffinity>
4.9768462181

> <CNN_VS>
1.9801907539

> <CNNaffinity_variance>
0.3248137236

$$$$
[H]OC1(c2c([H])c([H])c(C([H])([H])C([H])([H])C([H])([H])[H])c([H])c2[H])C([H])([H])C([H])([H])N(C([H])(c2c([H])c([H])c([H])c([H])c2[H])c2c([H])c([H])c([H])c([H])c2[H])C([H])([H])C1([H])[H]


 30 33  0  0  0  0  0  0  0  0999 V2000
   36.0563  -19.3176   35.5793 C   0  0  0  0  0  0  0  0  0  0  0  0
   36.4396  -20.5726   36.1021 O   0  0  0  0  0  0  0  0  0  0  0  0
   36.7891  -19.1159   34.3087 C   0  0  0  0  0  0  0  0  0  0  0  0
   38.2562  -19.3142   34.5759 C   0  0  0  0  0  0  0  0  0  0  0  0
   38.6497  -19.0344   35.9065 N   0  0  0  0  0  0  0  0  0  0  0  0
   37.9479  -18.1524   36.7100 C   0  0  0  0  0  0  0  0  0  0  0  0
   36.4477  -18.2662   36.5726 C   0  0  0  0  0  0  0  0  0  0  0  0
   35.7917  -21.2648   35.8140 H   0  0  0  0  0  0  0  0  0  0  0  0
   31.7928  -19.4540   35.1499 C   0  0  0  0  0  0  0  0  0  0  0  0
   32.5552  -18.6619   34.3129 C   0  0  0  0  0  0  0  0  0  0  0  0
   33.9438  -18.6152   34.4196 C   0  0  0  0  0  0  0  0  0  0  0  0
   34.6022  -19.3667   35.3762 C   0  0  0  0  0  0  0  0  0  0  0  0
   33.8186  -20.1496   36.1940 C   0  0  0  0  0  0  0  0  0  0  0  0
   32.4484  -20.2074   36.1020 C   0  0  0  0  0  0  0  0  0  0  0  0
   30.3195  -19.3760   35.0684 C   0  0  0  0  0  0  0  0  0  0  0  0
   28.6965  -20.6109   36.4626 C   0  0  0  0  0  0  0  0  0  0  0  0
   29.6763  -20.7283   35.3266 C   0  0  0  0  0  0  0  0  0  0  0  0
   39.6600  -19.8719   36.4193 C   0  0  0  0  0  0  0  0  0  0  0  0
   40.1848  -20.8785   35.4087 C   0  0  0  0  0  0  0  0  0  0  0  0
   41.1357  -20.4856   34.4639 C   0  0  0  0  0  0  0  0  0  0  0  0
   41.5941  -21.3530   33.5115 C   0  0  0  0  0  0  0  0  0  0  0  0
   41.0870  -22.6398   33.5092 C   0  0  0  0  0  0  0  0  0  0  0  0
   40.1616  -23.0252   34.4339 C   0  0  0  0  0  0  0  0  0  0  0  0
   39.6975  -22.1258   35.4083 C   0  0  0  0  0  0  0  0  0  0  0  0
   40.8687  -19.2411   36.9464 C   0  0  0  0  0  0  0  0  0  0  0  0
   41.4898  -19.7399   38.0882 C   0  0  0  0  0  0  0  0  0  0  0  0
   42.6579  -19.2216   38.5703 C   0  0  0  0  0  0  0  0  0  0  0  0
   43.2778  -18.1586   37.9196 C   0  0  0  0  0  0  0  0  0  0  0  0
   42.6808  -17.6509   36.8005 C   0  0  0  0  0  0  0  0  0  0  0  0
   41.4931  -18.1945   36.3346 C   0  0  0  0  0  0  0  0  0  0  0  0
 16 17  1  0  0  0
 17 15  1  0  0  0
 15  9  1  0  0  0
  9 10  2  0  0  0
 10 11  1  0  0  0
 11 12  2  0  0  0
 12  1  1  0  0  0
  1  2  1  0  0  0
  1  3  1  0  0  0
  3  4  1  0  0  0
  4  5  1  0  0  0
  5 18  1  0  0  0
 18 19  1  0  0  0
 19 20  2  0  0  0
 20 21  1  0  0  0
 21 22  2  0  0  0
 22 23  1  0  0  0
 23 24  2  0  0  0
 18 25  1  0  0  0
 25 26  2  0  0  0
 26 27  1  0  0  0
 27 28  2  0  0  0
 28 29  1  0  0  0
 29 30  2  0  0  0
  5  6  1  0  0  0
  6  7  1  0  0  0
 12 13  1  0  0  0
 13 14  2  0  0  0
 14  9  1  0  0  0
  7  1  1  0  0  0
 24 19  1  0  0  0
 30 25  1  0  0  0
  2  8  1  0  0  0
M  END
> <minimizedAffinity>
-6.25654

> <CNNscore>
0.3964193761

> <CNNaffinity>
4.6925058365

> <CNN_VS>
1.8602002859

> <CNNaffinity_variance>
0.4394952357

$$$$
[H]N=C(c1c([H])c([H])c([H])c(Oc2nc(Oc3c([H])c([H])c([H])c(N([H])C(=O)C([H])([H])[H])c3[H])c(F)c(C([H])([H])[H])c2F)c1[H])N([H])[H]


 34 36  0  0  0  0  0  0  0  0999 V2000
   34.5168  -17.9748   35.6035 C   0  0  0  0  0  0  0  0  0  0  0  0
   34.7971  -18.8431   36.6053 N   0  0  0  0  0  0  0  0  0  0  0  0
   34.0336  -19.8857   36.9411 C   0  0  0  0  0  0  0  0  0  0  0  0
   32.8744  -20.1086   36.2271 C   0  0  0  0  0  0  0  0  0  0  0  0
   32.0802  -21.1691   36.5542 F   0  0  0  0  0  0  0  0  0  0  0  0
   32.5190  -19.2719   35.1943 C   0  0  0  0  0  0  0  0  0  0  0  0
   31.2771  -19.4914   34.4119 C   0  0  0  0  0  0  0  0  0  0  0  0
   33.3545  -18.2166   34.9041 C   0  0  0  0  0  0  0  0  0  0  0  0
   32.9575  -17.4147   33.8708 F   0  0  0  0  0  0  0  0  0  0  0  0
   35.3446  -16.9318   35.3183 O   0  0  0  0  0  0  0  0  0  0  0  0
   34.4723  -13.6788   36.7763 C   0  0  0  0  0  0  0  0  0  0  0  0
   35.6583  -13.4243   37.4198 C   0  0  0  0  0  0  0  0  0  0  0  0
   36.7409  -14.2808   37.3959 C   0  0  0  0  0  0  0  0  0  0  0  0
   36.6629  -15.4526   36.7054 C   0  0  0  0  0  0  0  0  0  0  0  0
   35.5020  -15.7650   36.0403 C   0  0  0  0  0  0  0  0  0  0  0  0
   34.4437  -14.8955   36.0816 C   0  0  0  0  0  0  0  0  0  0  0  0
   31.3768  -11.5001   37.5481 C   0  0  0  0  0  0  0  0  0  0  0  0
   32.5427  -12.4076   37.8062 C   0  0  0  0  0  0  0  0  0  0  0  0
   32.7244  -12.7328   38.9851 O   0  0  0  0  0  0  0  0  0  0  0  0
   33.3419  -12.8317   36.7561 N   0  0  0  0  0  0  0  0  0  0  0  0
   33.0839  -12.4828   35.7654 H   0  0  0  0  0  0  0  0  0  0  0  0
   34.4124  -20.7213   37.9913 O   0  0  0  0  0  0  0  0  0  0  0  0
   35.7258  -21.0932   38.2032 C   0  0  0  0  0  0  0  0  0  0  0  0
   36.5908  -21.4442   37.1757 C   0  0  0  0  0  0  0  0  0  0  0  0
   37.8889  -21.8066   37.4376 C   0  0  0  0  0  0  0  0  0  0  0  0
   38.3740  -21.8318   38.7488 C   0  0  0  0  0  0  0  0  0  0  0  0
   37.5445  -21.4916   39.7757 C   0  0  0  0  0  0  0  0  0  0  0  0
   36.2173  -21.1236   39.4791 C   0  0  0  0  0  0  0  0  0  0  0  0
   37.9904  -21.4979   41.1607 C   0  0  0  0  0  0  0  0  0  0  0  0
   37.1931  -21.7226   42.1169 N   0  0  0  0  0  0  0  0  0  0  0  0
   39.3538  -21.2464   41.4522 N   0  0  0  0  0  0  0  0  0  0  0  0
   36.2001  -21.9117   41.9890 H   0  0  0  0  0  0  0  0  0  0  0  0
   39.5902  -20.4623   42.0818 H   0  0  0  0  0  0  0  0  0  0  0  0
   40.0879  -21.8430   41.0367 H   0  0  0  0  0  0  0  0  0  0  0  0
 17 18  1  0  0  0
 18 19  2  0  0  0
 18 20  1  0  0  0
 20 11  1  0  0  0
 11 12  2  0  0  0
 12 13  1  0  0  0
 13 14  2  0  0  0
 14 15  1  0  0  0
 15 10  1  0  0  0
 10  1  1  0  0  0
  1  2  2  0  0  0
  2  3  1  0  0  0
  3 22  1  0  0  0
 22 23  1  0  0  0
 23 24  2  0  0  0
 24 25  1  0  0  0
 25 26  2  0  0  0
 26 27  1  0  0  0
 27 29  1  0  0  0
 29 30  2  0  0  0
 29 31  1  0  0  0
 27 28  2  0  0  0
  3  4  2  0  0  0
  4  5  1  0  0  0
  4  6  1  0  0  0
  6  7  1  0  0  0
  6  8  2  0  0  0
  8  9  1  0  0  0
 15 16  2  0  0  0
 16 11  1  0  0  0
  8  1  1  0  0  0
 28 23  1  0  0  0
 20 21  1  0  0  0
 30 32  1  0  0  0
 31 33  1  0  0  0
 31 34  1  0  0  0
M  END
> <minimizedAffinity>
-7.33879

> <CNNscore>
0.5489194989

> <CNNaffinity>
5.8600435257

> <CNN_VS>
3.2166922092

> <CNNaffinity_variance>
0.1869165152

$$$$
[H]N=C(c1c([H])c([H])c([H])c(Oc2nc(Oc3c([H])c([H])c([H])c(N([H])C(=O)C([H])([H])[H])c3[H])c(F)c(C([H])([H])[H])c2F)c1[H])N([H])[H]


 34 36  0  0  0  0  0  0  0  0999 V2000
   34.0956  -16.4845   35.7634 C   0  0  0  0  0  0  0  0  0  0  0  0
   35.0385  -17.3118   36.2759 N   0  0  0  0  0  0  0  0  0  0  0  0
   36.0804  -16.9122   37.0092 C   0  0  0  0  0  0  0  0  0  0  0  0
   36.2208  -15.5653   37.2728 C   0  0  0  0  0  0  0  0  0  0  0  0
   37.2787  -15.1364   38.0206 F   0  0  0  0  0  0  0  0  0  0  0  0
   35.3051  -14.6601   36.7880 C   0  0  0  0  0  0  0  0  0  0  0  0
   35.4351  -13.2066   37.0583 C   0  0  0  0  0  0  0  0  0  0  0  0
   34.2559  -15.1441   36.0390 C   0  0  0  0  0  0  0  0  0  0  0  0
   33.3745  -14.2055   35.5802 F   0  0  0  0  0  0  0  0  0  0  0  0
   33.0588  -16.9654   35.0230 O   0  0  0  0  0  0  0  0  0  0  0  0
   31.1802  -20.1164   34.9215 C   0  0  0  0  0  0  0  0  0  0  0  0
   32.0912  -20.8692   34.2224 C   0  0  0  0  0  0  0  0  0  0  0  0
   33.3053  -20.3838   33.7791 C   0  0  0  0  0  0  0  0  0  0  0  0
   33.6511  -19.0905   34.0316 C   0  0  0  0  0  0  0  0  0  0  0  0
   32.7816  -18.2855   34.7269 C   0  0  0  0  0  0  0  0  0  0  0  0
   31.5835  -18.7947   35.1546 C   0  0  0  0  0  0  0  0  0  0  0  0
   28.2264  -21.6154   36.9097 C   0  0  0  0  0  0  0  0  0  0  0  0
   29.6395  -21.2231   36.5952 C   0  0  0  0  0  0  0  0  0  0  0  0
   30.4857  -21.5215   37.4458 O   0  0  0  0  0  0  0  0  0  0  0  0
   29.9336  -20.5669   35.4102 N   0  0  0  0  0  0  0  0  0  0  0  0
   29.1095  -20.3604   34.7410 H   0  0  0  0  0  0  0  0  0  0  0  0
   36.9968  -17.8465   37.4908 O   0  0  0  0  0  0  0  0  0  0  0  0
   37.5025  -18.8609   36.7011 C   0  0  0  0  0  0  0  0  0  0  0  0
   37.5843  -20.1814   37.1217 C   0  0  0  0  0  0  0  0  0  0  0  0
   38.0950  -21.1546   36.2990 C   0  0  0  0  0  0  0  0  0  0  0  0
   38.5470  -20.8401   35.0136 C   0  0  0  0  0  0  0  0  0  0  0  0
   38.4775  -19.5507   34.5768 C   0  0  0  0  0  0  0  0  0  0  0  0
   37.9491  -18.5717   35.4413 C   0  0  0  0  0  0  0  0  0  0  0  0
   38.9310  -19.1610   33.2504 C   0  0  0  0  0  0  0  0  0  0  0  0
   39.7539  -19.8627   32.5941 N   0  0  0  0  0  0  0  0  0  0  0  0
   38.4404  -17.9639   32.6729 N   0  0  0  0  0  0  0  0  0  0  0  0
   40.1513  -20.7349   32.9402 H   0  0  0  0  0  0  0  0  0  0  0  0
   39.1170  -17.2386   32.3841 H   0  0  0  0  0  0  0  0  0  0  0  0
   37.4233  -17.8311   32.5485 H   0  0  0  0  0  0  0  0  0  0  0  0
 17 18  1  0  0  0
 18 19  2  0  0  0
 18 20  1  0  0  0
 20 11  1  0  0  0
 11 12  2  0  0  0
 12 13  1  0  0  0
 13 14  2  0  0  0
 14 15  1  0  0  0
 15 10  1  0  0  0
 10  1  1  0  0  0
  1  2  2  0  0  0
  2  3  1  0  0  0
  3 22  1  0  0  0
 22 23  1  0  0  0
 23 24  2  0  0  0
 24 25  1  0  0  0
 25 26  2  0  0  0
 26 27  1  0  0  0
 27 29  1  0  0  0
 29 30  2  0  0  0
 29 31  1  0  0  0
 27 28  2  0  0  0
  3  4  2  0  0  0
  4  5  1  0  0  0
  4  6  1  0  0  0
  6  7  1  0  0  0
  6  8  2  0  0  0
  8  9  1  0  0  0
 15 16  2  0  0  0
 16 11  1  0  0  0
  8  1  1  0  0  0
 28 23  1  0  0  0
 20 21  1  0  0  0
 30 32  1  0  0  0
 31 33  1  0  0  0
 31 34  1  0  0  0
M  END
> <minimizedAffinity>
-8.18523

> <CNNscore>
0.4985221028

> <CNNaffinity>
5.6823015213

> <CNN_VS>
2.8327529430

> <CNNaffinity_variance>
0.5429075956

$$$$
[H]N=C(c1c([H])c([H])c([H])c(Oc2nc(Oc3c([H])c([H])c([H])c(N([H])C(=O)C([H])([H])[H])c3[H])c(F)c(C([H])([H])[H])c2F)c1[H])N([H])[H]


 34 36  0  0  0  0  0  0  0  0999 V2000
   34.6374  -17.9573   35.6119 C   0  0  0  0  0  0  0  0  0  0  0  0
   35.0315  -18.9593   36.4347 N   0  0  0  0  0  0  0  0  0  0  0  0
   34.2786  -20.0121   36.7622 C   0  0  0  0  0  0  0  0  0  0  0  0
   33.0073  -20.1011   36.2338 C   0  0  0  0  0  0  0  0  0  0  0  0
   32.2218  -21.1694   36.5559 F   0  0  0  0  0  0  0  0  0  0  0  0
   32.5324  -19.1239   35.3897 C   0  0  0  0  0  0  0  0  0  0  0  0
   31.1686  -19.1977   34.8089 C   0  0  0  0  0  0  0  0  0  0  0  0
   33.3645  -18.0668   35.0960 C   0  0  0  0  0  0  0  0  0  0  0  0
   32.8466  -17.1227   34.2541 F   0  0  0  0  0  0  0  0  0  0  0  0
   35.4620  -16.9128   35.3230 O   0  0  0  0  0  0  0  0  0  0  0  0
   35.0130  -13.6451   36.9320 C   0  0  0  0  0  0  0  0  0  0  0  0
   36.1790  -13.6179   37.6568 C   0  0  0  0  0  0  0  0  0  0  0  0
   37.1140  -14.6336   37.6402 C   0  0  0  0  0  0  0  0  0  0  0  0
   36.9001  -15.7393   36.8736 C   0  0  0  0  0  0  0  0  0  0  0  0
   35.7513  -15.8265   36.1251 C   0  0  0  0  0  0  0  0  0  0  0  0
   34.8412  -14.8027   36.1612 C   0  0  0  0  0  0  0  0  0  0  0  0
   32.1325  -11.1607   37.6070 C   0  0  0  0  0  0  0  0  0  0  0  0
   33.0890  -12.2885   37.8580 C   0  0  0  0  0  0  0  0  0  0  0  0
   32.9709  -12.8660   38.9448 O   0  0  0  0  0  0  0  0  0  0  0  0
   34.0324  -12.6287   36.9012 N   0  0  0  0  0  0  0  0  0  0  0  0
   34.0394  -12.0523   35.9861 H   0  0  0  0  0  0  0  0  0  0  0  0
   34.7794  -20.9913   37.6196 O   0  0  0  0  0  0  0  0  0  0  0  0
   34.5071  -20.9977   38.9738 C   0  0  0  0  0  0  0  0  0  0  0  0
   35.0622  -20.0886   39.8642 C   0  0  0  0  0  0  0  0  0  0  0  0
   34.7597  -20.1358   41.2026 C   0  0  0  0  0  0  0  0  0  0  0  0
   33.8831  -21.1028   41.7044 C   0  0  0  0  0  0  0  0  0  0  0  0
   33.3247  -22.0070   40.8507 C   0  0  0  0  0  0  0  0  0  0  0  0
   33.6520  -21.9362   39.4822 C   0  0  0  0  0  0  0  0  0  0  0  0
   32.4054  -23.0362   41.3118 C   0  0  0  0  0  0  0  0  0  0  0  0
   32.3147  -23.3504   42.5338 N   0  0  0  0  0  0  0  0  0  0  0  0
   31.5866  -23.7077   40.3707 N   0  0  0  0  0  0  0  0  0  0  0  0
   32.8684  -22.9141   43.2696 H   0  0  0  0  0  0  0  0  0  0  0  0
   31.6477  -24.7369   40.3048 H   0  0  0  0  0  0  0  0  0  0  0  0
   30.9448  -23.1671   39.7678 H   0  0  0  0  0  0  0  0  0  0  0  0
 17 18  1  0  0  0
 18 19  2  0  0  0
 18 20  1  0  0  0
 20 11  1  0  0  0
 11 12  2  0  0  0
 12 13  1  0  0  0
 13 14  2  0  0  0
 14 15  1  0  0  0
 15 10  1  0  0  0
 10  1  1  0  0  0
  1  2  2  0  0  0
  2  3  1  0  0  0
  3 22  1  0  0  0
 22 23  1  0  0  0
 23 24  2  0  0  0
 24 25  1  0  0  0
 25 26  2  0  0  0
 26 27  1  0  0  0
 27 29  1  0  0  0
 29 30  2  0  0  0
 29 31  1  0  0  0
 27 28  2  0  0  0
  3  4  2  0  0  0
  4  5  1  0  0  0
  4  6  1  0  0  0
  6  7  1  0  0  0
  6  8  2  0  0  0
  8  9  1  0  0  0
 15 16  2  0  0  0
 16 11  1  0  0  0
  8  1  1  0  0  0
 28 23  1  0  0  0
 20 21  1  0  0  0
 30 32  1  0  0  0
 31 33  1  0  0  0
 31 34  1  0  0  0
M  END
> <minimizedAffinity>
-7.11787

> <CNNscore>
0.4824651778

> <CNNaffinity>
5.6947293282

> <CNN_VS>
2.7475085258

> <CNNaffinity_variance>
0.1129856929

$$$$
[H]N=C(c1c([H])c([H])c([H])c(Oc2nc(Oc3c([H])c([H])c([H])c(N([H])C(=O)C([H])([H])[H])c3[H])c(F)c(C([H])([H])[H])c2F)c1[H])N([H])[H]


 34 36  0  0  0  0  0  0  0  0999 V2000
   35.2595  -16.5019   36.3085 C   0  0  0  0  0  0  0  0  0  0  0  0
   34.1077  -16.8387   35.6791 N   0  0  0  0  0  0  0  0  0  0  0  0
   34.0134  -17.7469   34.7050 C   0  0  0  0  0  0  0  0  0  0  0  0
   35.1604  -18.3973   34.2992 C   0  0  0  0  0  0  0  0  0  0  0  0
   35.0854  -19.3292   33.3052 F   0  0  0  0  0  0  0  0  0  0  0  0
   36.3703  -18.1117   34.8888 C   0  0  0  0  0  0  0  0  0  0  0  0
   37.6175  -18.7982   34.4695 C   0  0  0  0  0  0  0  0  0  0  0  0
   36.3921  -17.1637   35.8872 C   0  0  0  0  0  0  0  0  0  0  0  0
   37.6172  -16.9155   36.4404 F   0  0  0  0  0  0  0  0  0  0  0  0
   35.2787  -15.5639   37.2956 O   0  0  0  0  0  0  0  0  0  0  0  0
   33.2752  -12.5379   37.8414 C   0  0  0  0  0  0  0  0  0  0  0  0
   34.0336  -11.6612   37.1054 C   0  0  0  0  0  0  0  0  0  0  0  0
   35.1835  -12.0228   36.4321 C   0  0  0  0  0  0  0  0  0  0  0  0
   35.6191  -13.3128   36.4792 C   0  0  0  0  0  0  0  0  0  0  0  0
   34.9035  -14.2383   37.1996 C   0  0  0  0  0  0  0  0  0  0  0  0
   33.7658  -13.8504   37.8577 C   0  0  0  0  0  0  0  0  0  0  0  0
   29.7141  -11.5517   38.9687 C   0  0  0  0  0  0  0  0  0  0  0  0
   30.8503  -11.8431   38.0340 C   0  0  0  0  0  0  0  0  0  0  0  0
   30.6042  -11.7201   36.8286 O   0  0  0  0  0  0  0  0  0  0  0  0
   32.0852  -12.2242   38.5351 N   0  0  0  0  0  0  0  0  0  0  0  0
   32.1825  -12.2961   39.6098 H   0  0  0  0  0  0  0  0  0  0  0  0
   32.7771  -18.0211   34.1209 O   0  0  0  0  0  0  0  0  0  0  0  0
   31.9584  -19.0402   34.5673 C   0  0  0  0  0  0  0  0  0  0  0  0
   30.6473  -18.8370   34.9760 C   0  0  0  0  0  0  0  0  0  0  0  0
   29.8728  -19.8835   35.4117 C   0  0  0  0  0  0  0  0  0  0  0  0
   30.3857  -21.1836   35.4554 C   0  0  0  0  0  0  0  0  0  0  0  0
   31.6704  -21.4096   35.0595 C   0  0  0  0  0  0  0  0  0  0  0  0
   32.4433  -20.3180   34.6168 C   0  0  0  0  0  0  0  0  0  0  0  0
   32.2608  -22.7392   35.0813 C   0  0  0  0  0  0  0  0  0  0  0  0
   33.2485  -23.0183   35.8210 N   0  0  0  0  0  0  0  0  0  0  0  0
   31.7184  -23.7533   34.2539 N   0  0  0  0  0  0  0  0  0  0  0  0
   33.6937  -22.3451   36.4429 H   0  0  0  0  0  0  0  0  0  0  0  0
   32.3373  -24.2210   33.5718 H   0  0  0  0  0  0  0  0  0  0  0  0
   30.7215  -24.0106   34.3408 H   0  0  0  0  0  0  0  0  0  0  0  0
 17 18  1  0  0  0
 18 19  2  0  0  0
 18 20  1  0  0  0
 20 11  1  0  0  0
 11 12  2  0  0  0
 12 13  1  0  0  0
 13 14  2  0  0  0
 14 15  1  0  0  0
 15 10  1  0  0  0
 10  1  1  0  0  0
  1  2  2  0  0  0
  2  3  1  0  0  0
  3 22  1  0  0  0
 22 23  1  0  0  0
 23 24  2  0  0  0
 24 25  1  0  0  0
 25 26  2  0  0  0
 26 27  1  0  0  0
 27 29  1  0  0  0
 29 30  2  0  0  0
 29 31  1  0  0  0
 27 28  2  0  0  0
  3  4  2  0  0  0
  4  5  1  0  0  0
  4  6  1  0  0  0
  6  7  1  0  0  0
  6  8  2  0  0  0
  8  9  1  0  0  0
 15 16  2  0  0  0
 16 11  1  0  0  0
  8  1  1  0  0  0
 28 23  1  0  0  0
 20 21  1  0  0  0
 30 32  1  0  0  0
 31 33  1  0  0  0
 31 34  1  0  0  0
M  END
> <minimizedAffinity>
-8.78172

> <CNNscore>
0.4302285910

> <CNNaffinity>
6.0761771202

> <CNN_VS>
2.6141450405

> <CNNaffinity_variance>
0.1347638369

$$$$
[H]N=C(c1c([H])c([H])c([H])c(Oc2nc(Oc3c([H])c([H])c([H])c(N([H])C(=O)C([H])([H])[H])c3[H])c(F)c(C([H])([H])[H])c2F)c1[H])N([H])[H]


 34 36  0  0  0  0  0  0  0  0999 V2000
   34.4945  -17.8164   35.8056 C   0  0  0  0  0  0  0  0  0  0  0  0
   35.0806  -18.5298   36.7974 N   0  0  0  0  0  0  0  0  0  0  0  0
   34.5794  -19.6495   37.3243 C   0  0  0  0  0  0  0  0  0  0  0  0
   33.3811  -20.1272   36.8352 C   0  0  0  0  0  0  0  0  0  0  0  0
   32.8518  -21.2703   37.3600 F   0  0  0  0  0  0  0  0  0  0  0  0
   32.7228  -19.4600   35.8279 C   0  0  0  0  0  0  0  0  0  0  0  0
   31.4328  -19.9544   35.2855 C   0  0  0  0  0  0  0  0  0  0  0  0
   33.2989  -18.3116   35.3327 C   0  0  0  0  0  0  0  0  0  0  0  0
   32.6064  -17.6857   34.3342 F   0  0  0  0  0  0  0  0  0  0  0  0
   35.0661  -16.6808   35.3175 O   0  0  0  0  0  0  0  0  0  0  0  0
   34.0445  -13.4226   36.6625 C   0  0  0  0  0  0  0  0  0  0  0  0
   35.2555  -13.0313   37.1783 C   0  0  0  0  0  0  0  0  0  0  0  0
   36.4023  -13.7965   37.1033 C   0  0  0  0  0  0  0  0  0  0  0  0
   36.3665  -15.0129   36.4907 C   0  0  0  0  0  0  0  0  0  0  0  0
   35.1837  -15.4611   35.9543 C   0  0  0  0  0  0  0  0  0  0  0  0
   34.0615  -14.6798   36.0437 C   0  0  0  0  0  0  0  0  0  0  0  0
   30.7593  -11.6025   37.5677 C   0  0  0  0  0  0  0  0  0  0  0  0
   31.9918  -12.4349   37.7626 C   0  0  0  0  0  0  0  0  0  0  0  0
   32.1738  -12.8726   38.9044 O   0  0  0  0  0  0  0  0  0  0  0  0
   32.8473  -12.6736   36.6984 N   0  0  0  0  0  0  0  0  0  0  0  0
   32.5830  -12.2394   35.7438 H   0  0  0  0  0  0  0  0  0  0  0  0
   35.2629  -20.3100   38.3447 O   0  0  0  0  0  0  0  0  0  0  0  0
   36.3687  -21.1015   38.1019 C   0  0  0  0  0  0  0  0  0  0  0  0
   37.6688  -20.6900   38.3621 C   0  0  0  0  0  0  0  0  0  0  0  0
   38.7359  -21.5142   38.1035 C   0  0  0  0  0  0  0  0  0  0  0  0
   38.5403  -22.7919   37.5702 C   0  0  0  0  0  0  0  0  0  0  0  0
   37.2733  -23.2198   37.3057 C   0  0  0  0  0  0  0  0  0  0  0  0
   36.1963  -22.3540   37.5804 C   0  0  0  0  0  0  0  0  0  0  0  0
   37.0052  -24.5380   36.7513 C   0  0  0  0  0  0  0  0  0  0  0  0
   35.9705  -24.7740   36.0629 N   0  0  0  0  0  0  0  0  0  0  0  0
   37.9251  -25.5897   36.9855 N   0  0  0  0  0  0  0  0  0  0  0  0
   35.2633  -24.0717   35.8509 H   0  0  0  0  0  0  0  0  0  0  0  0
   37.5873  -26.4516   37.4440 H   0  0  0  0  0  0  0  0  0  0  0  0
   38.9121  -25.4843   36.6984 H   0  0  0  0  0  0  0  0  0  0  0  0
 17 18  1  0  0  0
 18 19  2  0  0  0
 18 20  1  0  0  0
 20 11  1  0  0  0
 11 12  2  0  0  0
 12 13  1  0  0  0
 13 14  2  0  0  0
 14 15  1  0  0  0
 15 10  1  0  0  0
 10  1  1  0  0  0
  1  2  2  0  0  0
  2  3  1  0  0  0
  3 22  1  0  0  0
 22 23  1  0  0  0
 23 24  2  0  0  0
 24 25  1  0  0  0
 25 26  2  0  0  0
 26 27  1  0  0  0
 27 29  1  0  0  0
 29 30  2  0  0  0
 29 31  1  0  0  0
 27 28  2  0  0  0
  3  4  2  0  0  0
  4  5  1  0  0  0
  4  6  1  0  0  0
  6  7  1  0  0  0
  6  8  2  0  0  0
  8  9  1  0  0  0
 15 16  2  0  0  0
 16 11  1  0  0  0
  8  1  1  0  0  0
 28 23  1  0  0  0
 20 21  1  0  0  0
 30 32  1  0  0  0
 31 33  1  0  0  0
 31 34  1  0  0  0
M  END
> <minimizedAffinity>
-7.10090

> <CNNscore>
0.4008224607

> <CNNaffinity>
5.7952103615

> <CNN_VS>
2.3228504658

> <CNNaffinity_variance>
0.0731762201

$$$$
[H]N=C(c1c([H])c([H])c([H])c(Oc2nc(Oc3c([H])c([H])c([H])c(N([H])C(=O)C([H])([H])[H])c3[H])c(F)c(C([H])([H])[H])c2F)c1[H])N([H])[H]


 34 36  0  0  0  0  0  0  0  0999 V2000
   33.8028  -18.2201   35.6536 C   0  0  0  0  0  0  0  0  0  0  0  0
   34.4829  -18.7570   36.6954 N   0  0  0  0  0  0  0  0  0  0  0  0
   34.5171  -20.0592   36.9884 C   0  0  0  0  0  0  0  0  0  0  0  0
   33.8160  -20.9328   36.1831 C   0  0  0  0  0  0  0  0  0  0  0  0
   33.8383  -22.2678   36.4653 F   0  0  0  0  0  0  0  0  0  0  0  0
   33.0999  -20.4664   35.1048 C   0  0  0  0  0  0  0  0  0  0  0  0
   32.3382  -21.3867   34.2243 C   0  0  0  0  0  0  0  0  0  0  0  0
   33.1100  -19.1108   34.8631 C   0  0  0  0  0  0  0  0  0  0  0  0
   32.3835  -18.6976   33.7815 F   0  0  0  0  0  0  0  0  0  0  0  0
   33.8141  -16.8792   35.4166 O   0  0  0  0  0  0  0  0  0  0  0  0
   34.9166  -13.6202   36.6941 C   0  0  0  0  0  0  0  0  0  0  0  0
   36.1951  -13.9691   37.0535 C   0  0  0  0  0  0  0  0  0  0  0  0
   36.7156  -15.2379   36.8935 C   0  0  0  0  0  0  0  0  0  0  0  0
   35.9456  -16.2230   36.3524 C   0  0  0  0  0  0  0  0  0  0  0  0
   34.6567  -15.9367   35.9725 C   0  0  0  0  0  0  0  0  0  0  0  0
   34.1671  -14.6682   36.1432 C   0  0  0  0  0  0  0  0  0  0  0  0
   32.9917  -10.4354   37.7316 C   0  0  0  0  0  0  0  0  0  0  0  0
   33.4884  -11.8490   37.7999 C   0  0  0  0  0  0  0  0  0  0  0  0
   33.0905  -12.5162   38.7617 O   0  0  0  0  0  0  0  0  0  0  0  0
   34.3410  -12.3364   36.8217 N   0  0  0  0  0  0  0  0  0  0  0  0
   34.6196  -11.6593   36.0257 H   0  0  0  0  0  0  0  0  0  0  0  0
   35.2492  -20.5107   38.0860 O   0  0  0  0  0  0  0  0  0  0  0  0
   36.6303  -20.5356   38.0938 C   0  0  0  0  0  0  0  0  0  0  0  0
   37.3727  -21.1711   39.0799 C   0  0  0  0  0  0  0  0  0  0  0  0
   38.7451  -21.1682   39.0433 C   0  0  0  0  0  0  0  0  0  0  0  0
   39.4320  -20.5235   38.0098 C   0  0  0  0  0  0  0  0  0  0  0  0
   38.7261  -19.8921   37.0294 C   0  0  0  0  0  0  0  0  0  0  0  0
   37.3186  -19.9104   37.0910 C   0  0  0  0  0  0  0  0  0  0  0  0
   39.3828  -19.2047   35.9280 C   0  0  0  0  0  0  0  0  0  0  0  0
   38.7726  -18.3609   35.2097 N   0  0  0  0  0  0  0  0  0  0  0  0
   40.7433  -19.4839   35.6480 N   0  0  0  0  0  0  0  0  0  0  0  0
   37.7956  -18.1064   35.3477 H   0  0  0  0  0  0  0  0  0  0  0  0
   40.9967  -19.8218   34.7053 H   0  0  0  0  0  0  0  0  0  0  0  0
   41.4585  -19.3480   36.3812 H   0  0  0  0  0  0  0  0  0  0  0  0
 17 18  1  0  0  0
 18 19  2  0  0  0
 18 20  1  0  0  0
 20 11  1  0  0  0
 11 12  2  0  0  0
 12 13  1  0  0  0
 13 14  2  0  0  0
 14 15  1  0  0  0
 15 10  1  0  0  0
 10  1  1  0  0  0
  1  2  2  0  0  0
  2  3  1  0  0  0
  3 22  1  0  0  0
 22 23  1  0  0  0
 23 24  2  0  0  0
 24 25  1  0  0  0
 25 26  2  0  0  0
 26 27  1  0  0  0
 27 29  1  0  0  0
 29 30  2  0  0  0
 29 31  1  0  0  0
 27 28  2  0  0  0
  3  4  2  0  0  0
  4  5  1  0  0  0
  4  6  1  0  0  0
  6  7  1  0  0  0
  6  8  2  0  0  0
  8  9  1  0  0  0
 15 16  2  0  0  0
 16 11  1  0  0  0
  8  1  1  0  0  0
 28 23  1  0  0  0
 20 21  1  0  0  0
 30 32  1  0  0  0
 31 33  1  0  0  0
 31 34  1  0  0  0
M  END
> <minimizedAffinity>
-7.80492

> <CNNscore>
0.3857611716

> <CNNaffinity>
5.7326622009

> <CNN_VS>
2.2114384174

> <CNNaffinity_variance>
0.1844885349

$$$$
[H]N=C(c1c([H])c([H])c([H])c(Oc2nc(Oc3c([H])c([H])c([H])c(N([H])C(=O)C([H])([H])[H])c3[H])c(F)c(C([H])([H])[H])c2F)c1[H])N([H])[H]


 34 36  0  0  0  0  0  0  0  0999 V2000
   36.7707  -17.5296   36.8150 C   0  0  0  0  0  0  0  0  0  0  0  0
   37.9034  -18.2671   36.9121 N   0  0  0  0  0  0  0  0  0  0  0  0
   38.2545  -19.2335   36.0603 C   0  0  0  0  0  0  0  0  0  0  0  0
   37.4157  -19.5129   35.0012 C   0  0  0  0  0  0  0  0  0  0  0  0
   37.7564  -20.4969   34.1191 F   0  0  0  0  0  0  0  0  0  0  0  0
   36.2460  -18.8085   34.8326 C   0  0  0  0  0  0  0  0  0  0  0  0
   35.3279  -19.0910   33.7012 C   0  0  0  0  0  0  0  0  0  0  0  0
   35.9482  -17.8259   35.7501 C   0  0  0  0  0  0  0  0  0  0  0  0
   34.7757  -17.1557   35.5393 F   0  0  0  0  0  0  0  0  0  0  0  0
   36.4783  -16.5584   37.7236 O   0  0  0  0  0  0  0  0  0  0  0  0
   35.0114  -13.2561   37.0817 C   0  0  0  0  0  0  0  0  0  0  0  0
   36.1717  -12.5219   37.0675 C   0  0  0  0  0  0  0  0  0  0  0  0
   37.4250  -13.0679   37.2609 C   0  0  0  0  0  0  0  0  0  0  0  0
   37.5547  -14.4061   37.4811 C   0  0  0  0  0  0  0  0  0  0  0  0
   36.4303  -15.1952   37.5073 C   0  0  0  0  0  0  0  0  0  0  0  0
   35.1994  -14.6255   37.3119 C   0  0  0  0  0  0  0  0  0  0  0  0
   31.3925  -11.9309   37.3506 C   0  0  0  0  0  0  0  0  0  0  0  0
   32.7203  -12.4621   37.8029 C   0  0  0  0  0  0  0  0  0  0  0  0
   32.8548  -12.6148   39.0224 O   0  0  0  0  0  0  0  0  0  0  0  0
   33.7084  -12.7511   36.8748 N   0  0  0  0  0  0  0  0  0  0  0  0
   33.4746  -12.5787   35.8330 H   0  0  0  0  0  0  0  0  0  0  0  0
   39.4445  -19.9352   36.2498 O   0  0  0  0  0  0  0  0  0  0  0  0
   40.6198  -19.3111   36.6205 C   0  0  0  0  0  0  0  0  0  0  0  0
   41.1489  -19.3880   37.9017 C   0  0  0  0  0  0  0  0  0  0  0  0
   42.3215  -18.7495   38.2214 C   0  0  0  0  0  0  0  0  0  0  0  0
   43.0144  -18.0035   37.2629 C   0  0  0  0  0  0  0  0  0  0  0  0
   42.5157  -17.9123   35.9974 C   0  0  0  0  0  0  0  0  0  0  0  0
   41.3107  -18.5772   35.6961 C   0  0  0  0  0  0  0  0  0  0  0  0
   43.1903  -17.1520   34.9564 C   0  0  0  0  0  0  0  0  0  0  0  0
   43.2595  -15.8894   34.9913 N   0  0  0  0  0  0  0  0  0  0  0  0
   43.7884  -17.8397   33.8716 N   0  0  0  0  0  0  0  0  0  0  0  0
   42.8555  -15.3241   35.7366 H   0  0  0  0  0  0  0  0  0  0  0  0
   43.4870  -17.6086   32.9109 H   0  0  0  0  0  0  0  0  0  0  0  0
   44.5108  -18.5562   34.0514 H   0  0  0  0  0  0  0  0  0  0  0  0
 17 18  1  0  0  0
 18 19  2  0  0  0
 18 20  1  0  0  0
 20 11  1  0  0  0
 11 12  2  0  0  0
 12 13  1  0  0  0
 13 14  2  0  0  0
 14 15  1  0  0  0
 15 10  1  0  0  0
 10  1  1  0  0  0
  1  2  2  0  0  0
  2  3  1  0  0  0
  3 22  1  0  0  0
 22 23  1  0  0  0
 23 24  2  0  0  0
 24 25  1  0  0  0
 25 26  2  0  0  0
 26 27  1  0  0  0
 27 29  1  0  0  0
 29 30  2  0  0  0
 29 31  1  0  0  0
 27 28  2  0  0  0
  3  4  2  0  0  0
  4  5  1  0  0  0
  4  6  1  0  0  0
  6  7  1  0  0  0
  6  8  2  0  0  0
  8  9  1  0  0  0
 15 16  2  0  0  0
 16 11  1  0  0  0
  8  1  1  0  0  0
 28 23  1  0  0  0
 20 21  1  0  0  0
 30 32  1  0  0  0
 31 33  1  0  0  0
 31 34  1  0  0  0
M  END
> <minimizedAffinity>
-8.35851

> <CNNscore>
0.3488755524

> <CNNaffinity>
5.8358979225

> <CNN_VS>
2.0360021591

> <CNNaffinity_variance>
0.1186318398

$$$$
[H]N=C(c1c([H])c([H])c([H])c(Oc2nc(Oc3c([H])c([H])c([H])c(N([H])C(=O)C([H])([H])[H])c3[H])c(F)c(C([H])([H])[H])c2F)c1[H])N([H])[H]


 34 36  0  0  0  0  0  0  0  0999 V2000
   35.0453  -17.8601   35.8234 C   0  0  0  0  0  0  0  0  0  0  0  0
   34.2437  -18.6899   35.1128 N   0  0  0  0  0  0  0  0  0  0  0  0
   33.8351  -19.8906   35.5299 C   0  0  0  0  0  0  0  0  0  0  0  0
   34.2492  -20.3320   36.7696 C   0  0  0  0  0  0  0  0  0  0  0  0
   33.8425  -21.5563   37.2146 F   0  0  0  0  0  0  0  0  0  0  0  0
   35.0647  -19.5481   37.5530 C   0  0  0  0  0  0  0  0  0  0  0  0
   35.5231  -20.0013   38.8898 C   0  0  0  0  0  0  0  0  0  0  0  0
   35.4468  -18.3212   37.0582 C   0  0  0  0  0  0  0  0  0  0  0  0
   36.2568  -17.5810   37.8733 F   0  0  0  0  0  0  0  0  0  0  0  0
   35.4219  -16.6471   35.3321 O   0  0  0  0  0  0  0  0  0  0  0  0
   33.9584  -13.6776   36.9160 C   0  0  0  0  0  0  0  0  0  0  0  0
   35.1248  -13.0376   37.2557 C   0  0  0  0  0  0  0  0  0  0  0  0
   36.3812  -13.5422   36.9853 C   0  0  0  0  0  0  0  0  0  0  0  0
   36.5079  -14.7394   36.3475 C   0  0  0  0  0  0  0  0  0  0  0  0
   35.3774  -15.4292   35.9816 C   0  0  0  0  0  0  0  0  0  0  0  0
   34.1436  -14.9036   36.2629 C   0  0  0  0  0  0  0  0  0  0  0  0
   30.6522  -12.2959   38.3599 C   0  0  0  0  0  0  0  0  0  0  0  0
   32.0777  -12.7621   38.3388 C   0  0  0  0  0  0  0  0  0  0  0  0
   32.6747  -12.7256   39.4208 O   0  0  0  0  0  0  0  0  0  0  0  0
   32.6508  -13.1995   37.1549 N   0  0  0  0  0  0  0  0  0  0  0  0
   32.0288  -13.1883   36.2702 H   0  0  0  0  0  0  0  0  0  0  0  0
   33.0087  -20.6690   34.7201 O   0  0  0  0  0  0  0  0  0  0  0  0
   31.6932  -20.9361   35.0463 C   0  0  0  0  0  0  0  0  0  0  0  0
   30.7435  -19.9431   35.2448 C   0  0  0  0  0  0  0  0  0  0  0  0
   29.4472  -20.2596   35.5675 C   0  0  0  0  0  0  0  0  0  0  0  0
   29.0492  -21.5931   35.7050 C   0  0  0  0  0  0  0  0  0  0  0  0
   29.9628  -22.5869   35.5153 C   0  0  0  0  0  0  0  0  0  0  0  0
   31.2863  -22.2344   35.1849 C   0  0  0  0  0  0  0  0  0  0  0  0
   29.6099  -23.9925   35.6436 C   0  0  0  0  0  0  0  0  0  0  0  0
   28.8298  -24.5616   34.8263 N   0  0  0  0  0  0  0  0  0  0  0  0
   30.1524  -24.7498   36.7110 N   0  0  0  0  0  0  0  0  0  0  0  0
   28.4001  -24.0858   34.0342 H   0  0  0  0  0  0  0  0  0  0  0  0
   29.5054  -25.2195   37.3652 H   0  0  0  0  0  0  0  0  0  0  0  0
   31.1771  -24.8230   36.8221 H   0  0  0  0  0  0  0  0  0  0  0  0
 17 18  1  0  0  0
 18 19  2  0  0  0
 18 20  1  0  0  0
 20 11  1  0  0  0
 11 12  2  0  0  0
 12 13  1  0  0  0
 13 14  2  0  0  0
 14 15  1  0  0  0
 15 10  1  0  0  0
 10  1  1  0  0  0
  1  2  2  0  0  0
  2  3  1  0  0  0
  3 22  1  0  0  0
 22 23  1  0  0  0
 23 24  2  0  0  0
 24 25  1  0  0  0
 25 26  2  0  0  0
 26 27  1  0  0  0
 27 29  1  0  0  0
 29 30  2  0  0  0
 29 31  1  0  0  0
 27 28  2  0  0  0
  3  4  2  0  0  0
  4  5  1  0  0  0
  4  6  1  0  0  0
  6  7  1  0  0  0
  6  8  2  0  0  0
  8  9  1  0  0  0
 15 16  2  0  0  0
 16 11  1  0  0  0
  8  1  1  0  0  0
 28 23  1  0  0  0
 20 21  1  0  0  0
 30 32  1  0  0  0
 31 33  1  0  0  0
 31 34  1  0  0  0
M  END
> <minimizedAffinity>
-8.24359

> <CNNscore>
0.3260710239

> <CNNaffinity>
5.6992249489

> <CNN_VS>
1.8583520651

> <CNNaffinity_variance>
0.1431262940

$$$$
[H]N=C(c1c([H])c([H])c([H])c(Oc2nc(Oc3c([H])c([H])c([H])c(N([H])C(=O)C([H])([H])[H])c3[H])c(F)c(C([H])([H])[H])c2F)c1[H])N([H])[H]


 34 36  0  0  0  0  0  0  0  0999 V2000
   33.9981  -20.3885   36.7196 C   0  0  0  0  0  0  0  0  0  0  0  0
   34.8064  -19.3572   36.3744 N   0  0  0  0  0  0  0  0  0  0  0  0
   34.4842  -18.4007   35.5003 C   0  0  0  0  0  0  0  0  0  0  0  0
   33.2442  -18.4516   34.8976 C   0  0  0  0  0  0  0  0  0  0  0  0
   32.8953  -17.4834   34.0014 F   0  0  0  0  0  0  0  0  0  0  0  0
   32.3649  -19.4673   35.1947 C   0  0  0  0  0  0  0  0  0  0  0  0
   31.0258  -19.5431   34.5593 C   0  0  0  0  0  0  0  0  0  0  0  0
   32.7650  -20.4193   36.1055 C   0  0  0  0  0  0  0  0  0  0  0  0
   31.8568  -21.4070   36.3661 F   0  0  0  0  0  0  0  0  0  0  0  0
   34.3959  -21.3289   37.6206 O   0  0  0  0  0  0  0  0  0  0  0  0
   37.8479  -22.5741   37.6591 C   0  0  0  0  0  0  0  0  0  0  0  0
   38.2270  -22.0729   38.8800 C   0  0  0  0  0  0  0  0  0  0  0  0
   37.3922  -21.3380   39.6981 C   0  0  0  0  0  0  0  0  0  0  0  0
   36.1148  -21.0764   39.3033 C   0  0  0  0  0  0  0  0  0  0  0  0
   35.6752  -21.5507   38.0911 C   0  0  0  0  0  0  0  0  0  0  0  0
   36.5262  -22.2775   37.3002 C   0  0  0  0  0  0  0  0  0  0  0  0
   39.7193  -25.3263   35.6975 C   0  0  0  0  0  0  0  0  0  0  0  0
   38.7874  -24.7202   36.7043 C   0  0  0  0  0  0  0  0  0  0  0  0
   38.1717  -25.5181   37.4205 O   0  0  0  0  0  0  0  0  0  0  0  0
   38.6555  -23.3431   36.7919 N   0  0  0  0  0  0  0  0  0  0  0  0
   39.2480  -22.7450   36.1130 H   0  0  0  0  0  0  0  0  0  0  0  0
   35.3903  -17.3803   35.2136 O   0  0  0  0  0  0  0  0  0  0  0  0
   35.5745  -16.2981   36.0521 C   0  0  0  0  0  0  0  0  0  0  0  0
   36.7651  -16.0506   36.7220 C   0  0  0  0  0  0  0  0  0  0  0  0
   36.8992  -14.9600   37.5451 C   0  0  0  0  0  0  0  0  0  0  0  0
   35.8378  -14.0687   37.7304 C   0  0  0  0  0  0  0  0  0  0  0  0
   34.6581  -14.2894   37.0839 C   0  0  0  0  0  0  0  0  0  0  0  0
   34.5474  -15.4160   36.2452 C   0  0  0  0  0  0  0  0  0  0  0  0
   33.5179  -13.3983   37.2355 C   0  0  0  0  0  0  0  0  0  0  0  0
   33.3304  -12.7293   38.2927 N   0  0  0  0  0  0  0  0  0  0  0  0
   32.5894  -13.2723   36.1730 N   0  0  0  0  0  0  0  0  0  0  0  0
   33.9521  -12.7654   39.0992 H   0  0  0  0  0  0  0  0  0  0  0  0
   31.5949  -13.4843   36.3553 H   0  0  0  0  0  0  0  0  0  0  0  0
   32.9133  -12.9732   35.2385 H   0  0  0  0  0  0  0  0  0  0  0  0
 17 18  1  0  0  0
 18 19  2  0  0  0
 18 20  1  0  0  0
 20 11  1  0  0  0
 11 12  2  0  0  0
 12 13  1  0  0  0
 13 14  2  0  0  0
 14 15  1  0  0  0
 15 10  1  0  0  0
 10  1  1  0  0  0
  1  2  2  0  0  0
  2  3  1  0  0  0
  3 22  1  0  0  0
 22 23  1  0  0  0
 23 24  2  0  0  0
 24 25  1  0  0  0
 25 26  2  0  0  0
 26 27  1  0  0  0
 27 29  1  0  0  0
 29 30  2  0  0  0
 29 31  1  0  0  0
 27 28  2  0  0  0
  3  4  2  0  0  0
  4  5  1  0  0  0
  4  6  1  0  0  0
  6  7  1  0  0  0
  6  8  2  0  0  0
  8  9  1  0  0  0
 15 16  2  0  0  0
 16 11  1  0  0  0
  8  1  1  0  0  0
 28 23  1  0  0  0
 20 21  1  0  0  0
 30 32  1  0  0  0
 31 33  1  0  0  0
 31 34  1  0  0  0
M  END
> <minimizedAffinity>
-6.82458

> <CNNscore>
0.3113338053

> <CNNaffinity>
5.3375730515

> <CNN_VS>
1.6617668867

> <CNNaffinity_variance>
0.3336327672

$$$$
[H]c1c([H])c(C(N=[N+]=[N-])(C([H])([H])[H])C([H])([H])[H])c(Cl)c([H])c1C(F)(F)F


 17 17  0  0  0  0  0  0  0  0999 V2000
   32.4125  -19.4919   35.3852 C   0  0  0  0  0  0  0  0  0  0  0  0
   31.2026  -18.9782   34.8719 C   0  0  0  0  0  0  0  0  0  0  0  0
   30.0917  -19.7038   35.1987 C   0  0  0  0  0  0  0  0  0  0  0  0
   30.0280  -20.8387   35.9224 C   0  0  0  0  0  0  0  0  0  0  0  0
   31.2514  -21.3466   36.4267 C   0  0  0  0  0  0  0  0  0  0  0  0
   32.4305  -20.6464   36.1413 C   0  0  0  0  0  0  0  0  0  0  0  0
   33.9647  -21.2989   36.7499 Cl  0  0  0  0  0  0  0  0  0  0  0  0
   28.7794  -21.5689   36.2648 C   0  0  0  0  0  0  0  0  0  0  0  0
   28.2286  -22.2246   35.1658 F   0  0  0  0  0  0  0  0  0  0  0  0
   27.8755  -20.7659   36.8771 F   0  0  0  0  0  0  0  0  0  0  0  0
   29.0541  -22.6235   37.1470 F   0  0  0  0  0  0  0  0  0  0  0  0
   34.4713  -19.3985   34.0231 C   0  0  0  0  0  0  0  0  0  0  0  0
   33.6765  -18.7296   35.1941 C   0  0  0  0  0  0  0  0  0  0  0  0
   33.4786  -17.3111   34.7910 C   0  0  0  0  0  0  0  0  0  0  0  0
   34.5215  -18.8061   36.3626 N   0  0  0  0  0  0  0  0  0  0  0  0
   35.3301  -17.9342   36.5800 N   0  0  0  0  0  0  0  0  0  0  0  0
   36.2373  -17.4718   37.3453 N   0  0  0  0  0  0  0  0  0  0  0  0
 12 13  1  0  0  0
 13 14  1  0  0  0
 13 15  1  0  0  0
 15 16  2  0  0  0
 16 17  2  0  0  0
 13  1  1  0  0  0
  1  2  2  0  0  0
  2  3  1  0  0  0
  3  4  2  0  0  0
  4  8  1  0  0  0
  8  9  1  0  0  0
  8 10  1  0  0  0
  8 11  1  0  0  0
  4  5  1  0  0  0
  5  6  2  0  0  0
  6  7  1  0  0  0
  6  1  1  0  0  0
M  CHG 1  16   1
M  CHG 1  17  -1
M  END
> <minimizedAffinity>
-4.78510

> <CNNscore>
0.6183469892

> <CNNaffinity>
3.9228272438

> <CNN_VS>
2.4256684780

> <CNNaffinity_variance>
0.3839947581

$$$$
[H]c1c([H])c(C(N=[N+]=[N-])(C([H])([H])[H])C([H])([H])[H])c(Cl)c([H])c1C(F)(F)F


 17 17  0  0  0  0  0  0  0  0999 V2000
   35.1049  -14.9317   36.6108 C   0  0  0  0  0  0  0  0  0  0  0  0
   34.4493  -16.0056   35.9720 C   0  0  0  0  0  0  0  0  0  0  0  0
   35.1411  -17.1840   35.9852 C   0  0  0  0  0  0  0  0  0  0  0  0
   36.3588  -17.4228   36.5104 C   0  0  0  0  0  0  0  0  0  0  0  0
   37.0083  -16.3338   37.1437 C   0  0  0  0  0  0  0  0  0  0  0  0
   36.3516  -15.0969   37.1792 C   0  0  0  0  0  0  0  0  0  0  0  0
   37.1782  -13.7274   37.9480 Cl  0  0  0  0  0  0  0  0  0  0  0  0
   37.0485  -18.7395   36.5136 C   0  0  0  0  0  0  0  0  0  0  0  0
   38.4360  -18.6128   36.5284 F   0  0  0  0  0  0  0  0  0  0  0  0
   36.6263  -19.5343   35.5004 F   0  0  0  0  0  0  0  0  0  0  0  0
   36.7891  -19.4262   37.7082 F   0  0  0  0  0  0  0  0  0  0  0  0
   35.3283  -12.5121   36.1654 C   0  0  0  0  0  0  0  0  0  0  0  0
   34.4053  -13.6266   36.7623 C   0  0  0  0  0  0  0  0  0  0  0  0
   33.1216  -13.5322   36.0159 C   0  0  0  0  0  0  0  0  0  0  0  0
   34.2031  -13.2939   38.1528 N   0  0  0  0  0  0  0  0  0  0  0  0
   33.0906  -13.0521   38.5592 N   0  0  0  0  0  0  0  0  0  0  0  0
   32.3461  -12.7494   39.5475 N   0  0  0  0  0  0  0  0  0  0  0  0
 12 13  1  0  0  0
 13 14  1  0  0  0
 13 15  1  0  0  0
 15 16  2  0  0  0
 16 17  2  0  0  0
 13  1  1  0  0  0
  1  2  2  0  0  0
  2  3  1  0  0  0
  3  4  2  0  0  0
  4  8  1  0  0  0
  8  9  1  0  0  0
  8 10  1  0  0  0
  8 11  1  0  0  0
  4  5  1  0  0  0
  5  6  2  0  0  0
  6  7  1  0  0  0
  6  1  1  0  0  0
M  CHG 1  16   1
M  CHG 1  17  -1
M  END
> <minimizedAffinity>
-6.63694

> <CNNscore>
0.5431450605

> <CNNaffinity>
4.3922719955

> <CNN_VS>
2.3856408596

> <CNNaffinity_variance>
0.7171635628

$$$$
[H]c1c([H])c(C(N=[N+]=[N-])(C([H])([H])[H])C([H])([H])[H])c(Cl)c([H])c1C(F)(F)F


 17 17  0  0  0  0  0  0  0  0999 V2000
   35.1947  -15.0760   36.5434 C   0  0  0  0  0  0  0  0  0  0  0  0
   34.4737  -16.1494   35.9782 C   0  0  0  0  0  0  0  0  0  0  0  0
   35.0571  -17.3746   36.1391 C   0  0  0  0  0  0  0  0  0  0  0  0
   36.2257  -17.6614   36.7455 C   0  0  0  0  0  0  0  0  0  0  0  0
   36.9422  -16.5732   37.3035 C   0  0  0  0  0  0  0  0  0  0  0  0
   36.3969  -15.2881   37.1871 C   0  0  0  0  0  0  0  0  0  0  0  0
   37.3088  -13.9231   37.8618 Cl  0  0  0  0  0  0  0  0  0  0  0  0
   36.7951  -19.0246   36.9097 C   0  0  0  0  0  0  0  0  0  0  0  0
   36.4226  -19.8841   35.8784 F   0  0  0  0  0  0  0  0  0  0  0  0
   36.5127  -19.5475   38.1277 F   0  0  0  0  0  0  0  0  0  0  0  0
   38.1919  -18.9901   36.7927 F   0  0  0  0  0  0  0  0  0  0  0  0
   33.2918  -13.7534   35.6875 C   0  0  0  0  0  0  0  0  0  0  0  0
   34.6080  -13.7082   36.5337 C   0  0  0  0  0  0  0  0  0  0  0  0
   34.2093  -13.2057   37.8763 C   0  0  0  0  0  0  0  0  0  0  0  0
   35.4840  -12.7621   35.8835 N   0  0  0  0  0  0  0  0  0  0  0  0
   35.2428  -11.5790   35.9411 N   0  0  0  0  0  0  0  0  0  0  0  0
   35.5891  -10.3921   35.6346 N   0  0  0  0  0  0  0  0  0  0  0  0
 12 13  1  0  0  0
 13 14  1  0  0  0
 13 15  1  0  0  0
 15 16  2  0  0  0
 16 17  2  0  0  0
 13  1  1  0  0  0
  1  2  2  0  0  0
  2  3  1  0  0  0
  3  4  2  0  0  0
  4  8  1  0  0  0
  8  9  1  0  0  0
  8 10  1  0  0  0
  8 11  1  0  0  0
  4  5  1  0  0  0
  5  6  2  0  0  0
  6  7  1  0  0  0
  6  1  1  0  0  0
M  CHG 1  16   1
M  CHG 1  17  -1
M  END
> <minimizedAffinity>
-5.74384

> <CNNscore>
0.4426805675

> <CNNaffinity>
4.4535560608

> <CNN_VS>
1.9715027809

> <CNNaffinity_variance>
0.7202807069

$$$$
[H]c1c([H])c(C(N=[N+]=[N-])(C([H])([H])[H])C([H])([H])[H])c(Cl)c([H])c1C(F)(F)F


 17 17  0  0  0  0  0  0  0  0999 V2000
   35.4666  -18.9205   35.3084 C   0  0  0  0  0  0  0  0  0  0  0  0
   34.8895  -19.0487   34.0271 C   0  0  0  0  0  0  0  0  0  0  0  0
   33.6231  -19.5623   34.0218 C   0  0  0  0  0  0  0  0  0  0  0  0
   32.8904  -19.9683   35.0772 C   0  0  0  0  0  0  0  0  0  0  0  0
   33.4847  -19.8394   36.3575 C   0  0  0  0  0  0  0  0  0  0  0  0
   34.7781  -19.3079   36.4401 C   0  0  0  0  0  0  0  0  0  0  0  0
   35.5316  -19.1731   38.0414 Cl  0  0  0  0  0  0  0  0  0  0  0  0
   31.5030  -20.4969   35.0060 C   0  0  0  0  0  0  0  0  0  0  0  0
   30.6907  -19.7455   34.1593 F   0  0  0  0  0  0  0  0  0  0  0  0
   30.9523  -20.6399   36.2360 F   0  0  0  0  0  0  0  0  0  0  0  0
   31.4905  -21.7622   34.4020 F   0  0  0  0  0  0  0  0  0  0  0  0
   37.3681  -18.0088   34.0216 C   0  0  0  0  0  0  0  0  0  0  0  0
   36.7967  -18.2689   35.4556 C   0  0  0  0  0  0  0  0  0  0  0  0
   36.7543  -16.9392   36.1220 C   0  0  0  0  0  0  0  0  0  0  0  0
   37.7386  -19.1356   36.1240 N   0  0  0  0  0  0  0  0  0  0  0  0
   38.8717  -18.7606   36.3158 N   0  0  0  0  0  0  0  0  0  0  0  0
   40.0225  -19.0112   36.8011 N   0  0  0  0  0  0  0  0  0  0  0  0
 12 13  1  0  0  0
 13 14  1  0  0  0
 13 15  1  0  0  0
 15 16  2  0  0  0
 16 17  2  0  0  0
 13  1  1  0  0  0
  1  2  2  0  0  0
  2  3  1  0  0  0
  3  4  2  0  0  0
  4  8  1  0  0  0
  8  9  1  0  0  0
  8 10  1  0  0  0
  8 11  1  0  0  0
  4  5  1  0  0  0
  5  6  2  0  0  0
  6  7  1  0  0  0
  6  1  1  0  0  0
M  CHG 1  16   1
M  CHG 1  17  -1
M  END
> <minimizedAffinity>
-4.73681

> <CNNscore>
0.4147008061

> <CNNaffinity>
3.9386742115

> <CNN_VS>
1.6333713531

> <CNNaffinity_variance>
0.4764905572

$$$$
[H]c1c([H])c(C(N=[N+]=[N-])(C([H])([H])[H])C([H])([H])[H])c(Cl)c([H])c1C(F)(F)F


 17 17  0  0  0  0  0  0  0  0999 V2000
   36.7677  -19.8769   37.5155 C   0  0  0  0  0  0  0  0  0  0  0  0
   36.9897  -18.9014   36.5203 C   0  0  0  0  0  0  0  0  0  0  0  0
   38.3020  -18.7161   36.1872 C   0  0  0  0  0  0  0  0  0  0  0  0
   39.3822  -19.3326   36.7054 C   0  0  0  0  0  0  0  0  0  0  0  0
   39.1451  -20.3058   37.7082 C   0  0  0  0  0  0  0  0  0  0  0  0
   37.8214  -20.5574   38.0913 C   0  0  0  0  0  0  0  0  0  0  0  0
   37.5282  -21.7561   39.3668 Cl  0  0  0  0  0  0  0  0  0  0  0  0
   40.7877  -19.1026   36.2798 C   0  0  0  0  0  0  0  0  0  0  0  0
   41.5910  -20.2252   36.4694 F   0  0  0  0  0  0  0  0  0  0  0  0
   41.3185  -17.9997   36.8616 F   0  0  0  0  0  0  0  0  0  0  0  0
   40.8546  -18.9066   34.8931 F   0  0  0  0  0  0  0  0  0  0  0  0
   34.4008  -19.4815   36.9292 C   0  0  0  0  0  0  0  0  0  0  0  0
   35.3747  -20.2507   37.8832 C   0  0  0  0  0  0  0  0  0  0  0  0
   35.0625  -21.6943   37.7028 C   0  0  0  0  0  0  0  0  0  0  0  0
   35.0525  -19.8316   39.2269 N   0  0  0  0  0  0  0  0  0  0  0  0
   34.2816  -20.4824   39.8929 N   0  0  0  0  0  0  0  0  0  0  0  0
   33.6804  -20.6339   41.0056 N   0  0  0  0  0  0  0  0  0  0  0  0
 12 13  1  0  0  0
 13 14  1  0  0  0
 13 15  1  0  0  0
 15 16  2  0  0  0
 16 17  2  0  0  0
 13  1  1  0  0  0
  1  2  2  0  0  0
  2  3  1  0  0  0
  3  4  2  0  0  0
  4  8  1  0  0  0
  8  9  1  0  0  0
  8 10  1  0  0  0
  8 11  1  0  0  0
  4  5  1  0  0  0
  5  6  2  0  0  0
  6  7  1  0  0  0
  6  1  1  0  0  0
M  CHG 1  16   1
M  CHG 1  17  -1
M  END
> <minimizedAffinity>
-4.16173

> <CNNscore>
0.4062153399

> <CNNaffinity>
3.7950096130

> <CNN_VS>
1.5415911674

> <CNNaffinity_variance>
0.1398877203

$$$$
[H]c1c([H])c(C(N=[N+]=[N-])(C([H])([H])[H])C([H])([H])[H])c(Cl)c([H])c1C(F)(F)F


 17 17  0  0  0  0  0  0  0  0999 V2000
   35.4990  -19.3526   36.1972 C   0  0  0  0  0  0  0  0  0  0  0  0
   34.5036  -19.9309   37.0133 C   0  0  0  0  0  0  0  0  0  0  0  0
   33.2591  -19.9728   36.4503 C   0  0  0  0  0  0  0  0  0  0  0  0
   32.8828  -19.5160   35.2398 C   0  0  0  0  0  0  0  0  0  0  0  0
   33.8915  -18.9322   34.4331 C   0  0  0  0  0  0  0  0  0  0  0  0
   35.1951  -18.8670   34.9415 C   0  0  0  0  0  0  0  0  0  0  0  0
   36.4512  -18.1106   33.9416 Cl  0  0  0  0  0  0  0  0  0  0  0  0
   31.5119  -19.6149   34.6737 C   0  0  0  0  0  0  0  0  0  0  0  0
   31.5028  -19.5214   33.2836 F   0  0  0  0  0  0  0  0  0  0  0  0
   30.6637  -18.7248   35.2438 F   0  0  0  0  0  0  0  0  0  0  0  0
   30.9786  -20.8917   34.9001 F   0  0  0  0  0  0  0  0  0  0  0  0
   37.7541  -20.1815   35.6223 C   0  0  0  0  0  0  0  0  0  0  0  0
   36.9162  -19.3521   36.6521 C   0  0  0  0  0  0  0  0  0  0  0  0
   37.5437  -18.0035   36.6923 C   0  0  0  0  0  0  0  0  0  0  0  0
   37.0616  -20.0116   37.9285 N   0  0  0  0  0  0  0  0  0  0  0  0
   38.1301  -20.4784   38.2476 N   0  0  0  0  0  0  0  0  0  0  0  0
   38.8206  -21.0877   39.1277 N   0  0  0  0  0  0  0  0  0  0  0  0
 12 13  1  0  0  0
 13 14  1  0  0  0
 13 15  1  0  0  0
 15 16  2  0  0  0
 16 17  2  0  0  0
 13  1  1  0  0  0
  1  2  2  0  0  0
  2  3  1  0  0  0
  3  4  2  0  0  0
  4  8  1  0  0  0
  8  9  1  0  0  0
  8 10  1  0  0  0
  8 11  1  0  0  0
  4  5  1  0  0  0
  5  6  2  0  0  0
  6  7  1  0  0  0
  6  1  1  0  0  0
M  CHG 1  16   1
M  CHG 1  17  -1
M  END
> <minimizedAffinity>
-4.33404

> <CNNscore>
0.4021862149

> <CNNaffinity>
3.8876099586

> <CNN_VS>
1.5635430813

> <CNNaffinity_variance>
0.3703418970

$$$$
[H]c1c([H])c(C(N=[N+]=[N-])(C([H])([H])[H])C([H])([H])[H])c(Cl)c([H])c1C(F)(F)F


 17 17  0  0  0  0  0  0  0  0999 V2000
   33.1158  -19.1320   35.7518 C   0  0  0  0  0  0  0  0  0  0  0  0
   33.0945  -17.8081   35.2640 C   0  0  0  0  0  0  0  0  0  0  0  0
   34.1828  -17.0567   35.6082 C   0  0  0  0  0  0  0  0  0  0  0  0
   35.2384  -17.4254   36.3602 C   0  0  0  0  0  0  0  0  0  0  0  0
   35.2439  -18.7560   36.8485 C   0  0  0  0  0  0  0  0  0  0  0  0
   34.1649  -19.5882   36.5238 C   0  0  0  0  0  0  0  0  0  0  0  0
   34.1597  -21.2453   37.1592 Cl  0  0  0  0  0  0  0  0  0  0  0  0
   36.4074  -16.5643   36.6786 C   0  0  0  0  0  0  0  0  0  0  0  0
   36.3316  -16.0165   37.9574 F   0  0  0  0  0  0  0  0  0  0  0  0
   36.6071  -15.6129   35.7344 F   0  0  0  0  0  0  0  0  0  0  0  0
   37.5794  -17.3316   36.7411 F   0  0  0  0  0  0  0  0  0  0  0  0
   30.9040  -19.2609   34.6590 C   0  0  0  0  0  0  0  0  0  0  0  0
   32.0431  -20.0825   35.3503 C   0  0  0  0  0  0  0  0  0  0  0  0
   32.4715  -21.0999   34.3526 C   0  0  0  0  0  0  0  0  0  0  0  0
   31.4493  -20.7250   36.4991 N   0  0  0  0  0  0  0  0  0  0  0  0
   30.2466  -20.7586   36.6165 N   0  0  0  0  0  0  0  0  0  0  0  0
   29.2403  -21.1396   37.2982 N   0  0  0  0  0  0  0  0  0  0  0  0
 12 13  1  0  0  0
 13 14  1  0  0  0
 13 15  1  0  0  0
 15 16  2  0  0  0
 16 17  2  0  0  0
 13  1  1  0  0  0
  1  2  2  0  0  0
  2  3  1  0  0  0
  3  4  2  0  0  0
  4  8  1  0  0  0
  8  9  1  0  0  0
  8 10  1  0  0  0
  8 11  1  0  0  0
  4  5  1  0  0  0
  5  6  2  0  0  0
  6  7  1  0  0  0
  6  1  1  0  0  0
M  CHG 1  16   1
M  CHG 1  17  -1
M  END
> <minimizedAffinity>
-5.68691

> <CNNscore>
0.4004787207

> <CNNaffinity>
3.9111614227

> <CNN_VS>
1.5663368702

> <CNNaffinity_variance>
0.4160918593

$$$$
[H]c1c([H])c(C(N=[N+]=[N-])(C([H])([H])[H])C([H])([H])[H])c(Cl)c([H])c1C(F)(F)F


 17 17  0  0  0  0  0  0  0  0999 V2000
   34.8552  -18.4775   36.2652 C   0  0  0  0  0  0  0  0  0  0  0  0
   34.7949  -19.8625   36.5282 C   0  0  0  0  0  0  0  0  0  0  0  0
   33.5739  -20.4327   36.3013 C   0  0  0  0  0  0  0  0  0  0  0  0
   32.4439  -19.8295   35.8834 C   0  0  0  0  0  0  0  0  0  0  0  0
   32.5172  -18.4371   35.6287 C   0  0  0  0  0  0  0  0  0  0  0  0
   33.7424  -17.7880   35.8279 C   0  0  0  0  0  0  0  0  0  0  0  0
   33.8254  -16.0394   35.5354 Cl  0  0  0  0  0  0  0  0  0  0  0  0
   31.1489  -20.5141   35.6307 C   0  0  0  0  0  0  0  0  0  0  0  0
   31.2701  -21.5615   34.7200 F   0  0  0  0  0  0  0  0  0  0  0  0
   30.1775  -19.6414   35.2680 F   0  0  0  0  0  0  0  0  0  0  0  0
   30.7032  -21.1642   36.7903 F   0  0  0  0  0  0  0  0  0  0  0  0
   37.2415  -18.8000   36.8164 C   0  0  0  0  0  0  0  0  0  0  0  0
   36.1579  -17.7645   36.3652 C   0  0  0  0  0  0  0  0  0  0  0  0
   36.6462  -17.2025   35.0769 C   0  0  0  0  0  0  0  0  0  0  0  0
   36.1214  -16.7371   37.3792 N   0  0  0  0  0  0  0  0  0  0  0  0
   36.8567  -15.7812   37.2956 N   0  0  0  0  0  0  0  0  0  0  0  0
   37.2441  -14.6729   37.7896 N   0  0  0  0  0  0  0  0  0  0  0  0
 12 13  1  0  0  0
 13 14  1  0  0  0
 13 15  1  0  0  0
 15 16  2  0  0  0
 16 17  2  0  0  0
 13  1  1  0  0  0
  1  2  2  0  0  0
  2  3  1  0  0  0
  3  4  2  0  0  0
  4  8  1  0  0  0
  8  9  1  0  0  0
  8 10  1  0  0  0
  8 11  1  0  0  0
  4  5  1  0  0  0
  5  6  2  0  0  0
  6  7  1  0  0  0
  6  1  1  0  0  0
M  CHG 1  16   1
M  CHG 1  17  -1
M  END
> <minimizedAffinity>
-4.83942

> <CNNscore>
0.3916887939

> <CNNaffinity>
3.9560723305

> <CNN_VS>
1.5495492220

> <CNNaffinity_variance>
0.4746828675

$$$$
[H]c1c([H])c(C(N=[N+]=[N-])(C([H])([H])[H])C([H])([H])[H])c(Cl)c([H])c1C(F)(F)F


 17 17  0  0  0  0  0  0  0  0999 V2000
   31.1234  -20.7916   36.0593 C   0  0  0  0  0  0  0  0  0  0  0  0
   30.7953  -19.8722   35.0404 C   0  0  0  0  0  0  0  0  0  0  0  0
   31.7819  -18.9742   34.7443 C   0  0  0  0  0  0  0  0  0  0  0  0
   32.9959  -18.8599   35.3176 C   0  0  0  0  0  0  0  0  0  0  0  0
   33.3099  -19.7860   36.3436 C   0  0  0  0  0  0  0  0  0  0  0  0
   32.3495  -20.7446   36.6913 C   0  0  0  0  0  0  0  0  0  0  0  0
   32.7334  -21.8857   37.9953 Cl  0  0  0  0  0  0  0  0  0  0  0  0
   34.0378  -17.8729   34.9307 C   0  0  0  0  0  0  0  0  0  0  0  0
   35.1923  -17.9886   35.7021 F   0  0  0  0  0  0  0  0  0  0  0  0
   33.5583  -16.6053   34.9293 F   0  0  0  0  0  0  0  0  0  0  0  0
   34.5053  -18.1354   33.6352 F   0  0  0  0  0  0  0  0  0  0  0  0
   28.9834  -21.8234   35.3821 C   0  0  0  0  0  0  0  0  0  0  0  0
   30.1763  -21.8901   36.3935 C   0  0  0  0  0  0  0  0  0  0  0  0
   30.7511  -23.2553   36.2524 C   0  0  0  0  0  0  0  0  0  0  0  0
   29.6104  -21.7175   37.7107 N   0  0  0  0  0  0  0  0  0  0  0  0
   28.6607  -20.9862   37.8678 N   0  0  0  0  0  0  0  0  0  0  0  0
   27.8040  -20.4888   38.6686 N   0  0  0  0  0  0  0  0  0  0  0  0
 12 13  1  0  0  0
 13 14  1  0  0  0
 13 15  1  0  0  0
 15 16  2  0  0  0
 16 17  2  0  0  0
 13  1  1  0  0  0
  1  2  2  0  0  0
  2  3  1  0  0  0
  3  4  2  0  0  0
  4  8  1  0  0  0
  8  9  1  0  0  0
  8 10  1  0  0  0
  8 11  1  0  0  0
  4  5  1  0  0  0
  5  6  2  0  0  0
  6  7  1  0  0  0
  6  1  1  0  0  0
M  CHG 1  16   1
M  CHG 1  17  -1
M  END
> <minimizedAffinity>
-5.12618

> <CNNscore>
0.3899218440

> <CNNaffinity>
3.7982697487

> <CNN_VS>
1.4810283184

> <CNNaffinity_variance>
0.5047312975

$$$$
[H]c1c([H])c(C([H])([H])OC([H])([H])C2([H])C([H])([H])C([H])([H])N(C([H])([H])C([H])([H])C([H])([H])C([H])([H])C([H])([H])[H])C([H])([H])C2([H])[H])c([H])c([H])c1F


 21 22  0  0  0  0  0  0  0  0999 V2000
   31.1998  -20.1100   35.9728 N   0  0  0  0  0  0  0  0  0  0  0  0
   32.3609  -20.7288   36.4800 C   0  0  0  0  0  0  0  0  0  0  0  0
   33.6213  -19.9537   36.4367 C   0  0  0  0  0  0  0  0  0  0  0  0
   33.8176  -19.4783   35.0021 C   0  0  0  0  0  0  0  0  0  0  0  0
   32.6605  -18.5378   34.7449 C   0  0  0  0  0  0  0  0  0  0  0  0
   31.3241  -19.1266   34.9799 C   0  0  0  0  0  0  0  0  0  0  0  0
   30.2226  -21.1294   35.6900 C   0  0  0  0  0  0  0  0  0  0  0  0
   28.8572  -20.8403   36.2031 C   0  0  0  0  0  0  0  0  0  0  0  0
   28.5850  -21.5407   37.5100 C   0  0  0  0  0  0  0  0  0  0  0  0
   27.0422  -19.7201   38.0725 C   0  0  0  0  0  0  0  0  0  0  0  0
   27.2145  -21.2189   38.0481 C   0  0  0  0  0  0  0  0  0  0  0  0
   35.1013  -18.6958   34.8579 C   0  0  0  0  0  0  0  0  0  0  0  0
   34.8406  -17.3311   34.9949 O   0  0  0  0  0  0  0  0  0  0  0  0
   35.8875  -16.7226   35.6820 C   0  0  0  0  0  0  0  0  0  0  0  0
   35.4269  -15.3753   36.1381 C   0  0  0  0  0  0  0  0  0  0  0  0
   36.3314  -14.4064   36.5333 C   0  0  0  0  0  0  0  0  0  0  0  0
   35.9321  -13.1557   36.9582 C   0  0  0  0  0  0  0  0  0  0  0  0
   34.5933  -12.8254   37.0033 C   0  0  0  0  0  0  0  0  0  0  0  0
   34.1720  -11.5952   37.4198 F   0  0  0  0  0  0  0  0  0  0  0  0
   33.6864  -13.7870   36.6107 C   0  0  0  0  0  0  0  0  0  0  0  0
   34.0875  -15.0490   36.1818 C   0  0  0  0  0  0  0  0  0  0  0  0
 10 11  1  0  0  0
 11  9  1  0  0  0
  9  8  1  0  0  0
  8  7  1  0  0  0
  7  1  1  0  0  0
  1  2  1  0  0  0
  2  3  1  0  0  0
  3  4  1  0  0  0
  4 12  1  0  0  0
 12 13  1  0  0  0
 13 14  1  0  0  0
 14 15  1  0  0  0
 15 16  2  0  0  0
 16 17  1  0  0  0
 17 18  2  0  0  0
 18 19  1  0  0  0
 18 20  1  0  0  0
 20 21  2  0  0  0
  4  5  1  0  0  0
  5  6  1  0  0  0
  6  1  1  0  0  0
 21 15  1  0  0  0
M  END
> <minimizedAffinity>
-6.09653

> <CNNscore>
0.6524640322

> <CNNaffinity>
4.5091943741

> <CNN_VS>
2.9420871735

> <CNNaffinity_variance>
0.8150216341

$$$$
[H]c1c([H])c(C([H])([H])OC([H])([H])C2([H])C([H])([H])C([H])([H])N(C([H])([H])C([H])([H])C([H])([H])C([H])([H])C([H])([H])[H])C([H])([H])C2([H])[H])c([H])c([H])c1F


 21 22  0  0  0  0  0  0  0  0999 V2000
   35.8089  -18.4320   35.3384 N   0  0  0  0  0  0  0  0  0  0  0  0
   34.8317  -18.4240   36.3550 C   0  0  0  0  0  0  0  0  0  0  0  0
   33.5947  -19.2018   36.1182 C   0  0  0  0  0  0  0  0  0  0  0  0
   33.0194  -18.7515   34.7808 C   0  0  0  0  0  0  0  0  0  0  0  0
   34.0546  -19.1626   33.7567 C   0  0  0  0  0  0  0  0  0  0  0  0
   35.4132  -18.6343   34.0077 C   0  0  0  0  0  0  0  0  0  0  0  0
   36.6897  -17.3104   35.5397 C   0  0  0  0  0  0  0  0  0  0  0  0
   36.5493  -16.6395   36.8592 C   0  0  0  0  0  0  0  0  0  0  0  0
   36.6228  -15.1384   36.7403 C   0  0  0  0  0  0  0  0  0  0  0  0
   38.1670  -13.4076   37.5344 C   0  0  0  0  0  0  0  0  0  0  0  0
   37.2249  -14.5038   37.9674 C   0  0  0  0  0  0  0  0  0  0  0  0
   31.7331  -19.4786   34.4680 C   0  0  0  0  0  0  0  0  0  0  0  0
   30.9497  -19.5692   35.6201 O   0  0  0  0  0  0  0  0  0  0  0  0
   29.6977  -20.0836   35.2938 C   0  0  0  0  0  0  0  0  0  0  0  0
   29.5359  -21.3968   35.9900 C   0  0  0  0  0  0  0  0  0  0  0  0
   30.3903  -21.7756   37.0097 C   0  0  0  0  0  0  0  0  0  0  0  0
   30.2624  -22.9817   37.6678 C   0  0  0  0  0  0  0  0  0  0  0  0
   29.2597  -23.8648   37.3237 C   0  0  0  0  0  0  0  0  0  0  0  0
   29.1115  -25.0642   37.9590 F   0  0  0  0  0  0  0  0  0  0  0  0
   28.4045  -23.4931   36.3078 C   0  0  0  0  0  0  0  0  0  0  0  0
   28.5323  -22.2769   35.6430 C   0  0  0  0  0  0  0  0  0  0  0  0
 10 11  1  0  0  0
 11  9  1  0  0  0
  9  8  1  0  0  0
  8  7  1  0  0  0
  7  1  1  0  0  0
  1  2  1  0  0  0
  2  3  1  0  0  0
  3  4  1  0  0  0
  4 12  1  0  0  0
 12 13  1  0  0  0
 13 14  1  0  0  0
 14 15  1  0  0  0
 15 16  2  0  0  0
 16 17  1  0  0  0
 17 18  2  0  0  0
 18 19  1  0  0  0
 18 20  1  0  0  0
 20 21  2  0  0  0
  4  5  1  0  0  0
  5  6  1  0  0  0
  6  1  1  0  0  0
 21 15  1  0  0  0
M  END
> <minimizedAffinity>
-5.42151

> <CNNscore>
0.6351356506

> <CNNaffinity>
4.3156404495

> <CNN_VS>
2.7410171032

> <CNNaffinity_variance>
0.6946719885

$$$$
[H]c1c([H])c(C([H])([H])OC([H])([H])C2([H])C([H])([H])C([H])([H])N(C([H])([H])C([H])([H])C([H])([H])C([H])([H])C([H])([H])[H])C([H])([H])C2([H])[H])c([H])c([H])c1F


 21 22  0  0  0  0  0  0  0  0999 V2000
   32.4240  -23.0154   35.4722 N   0  0  0  0  0  0  0  0  0  0  0  0
   32.1253  -22.2413   34.3321 C   0  0  0  0  0  0  0  0  0  0  0  0
   32.5148  -20.8134   34.3558 C   0  0  0  0  0  0  0  0  0  0  0  0
   31.9292  -20.1999   35.6220 C   0  0  0  0  0  0  0  0  0  0  0  0
   32.6306  -20.9132   36.7572 C   0  0  0  0  0  0  0  0  0  0  0  0
   32.5150  -22.3874   36.7235 C   0  0  0  0  0  0  0  0  0  0  0  0
   31.6028  -24.1984   35.4517 C   0  0  0  0  0  0  0  0  0  0  0  0
   30.2333  -23.9944   34.9095 C   0  0  0  0  0  0  0  0  0  0  0  0
   29.2609  -23.5648   35.9785 C   0  0  0  0  0  0  0  0  0  0  0  0
   28.6483  -21.3411   36.8097 C   0  0  0  0  0  0  0  0  0  0  0  0
   28.5688  -22.2733   35.6259 C   0  0  0  0  0  0  0  0  0  0  0  0
   32.2565  -18.7285   35.7167 C   0  0  0  0  0  0  0  0  0  0  0  0
   33.4999  -18.4827   35.1312 O   0  0  0  0  0  0  0  0  0  0  0  0
   33.5944  -17.1377   34.7838 C   0  0  0  0  0  0  0  0  0  0  0  0
   34.5262  -16.4710   35.7442 C   0  0  0  0  0  0  0  0  0  0  0  0
   34.3332  -15.1577   36.1329 C   0  0  0  0  0  0  0  0  0  0  0  0
   35.1785  -14.5197   37.0175 C   0  0  0  0  0  0  0  0  0  0  0  0
   36.2633  -15.1835   37.5527 C   0  0  0  0  0  0  0  0  0  0  0  0
   37.1147  -14.5751   38.4298 F   0  0  0  0  0  0  0  0  0  0  0  0
   36.4613  -16.4931   37.1691 C   0  0  0  0  0  0  0  0  0  0  0  0
   35.6096  -17.1380   36.2769 C   0  0  0  0  0  0  0  0  0  0  0  0
 10 11  1  0  0  0
 11  9  1  0  0  0
  9  8  1  0  0  0
  8  7  1  0  0  0
  7  1  1  0  0  0
  1  2  1  0  0  0
  2  3  1  0  0  0
  3  4  1  0  0  0
  4 12  1  0  0  0
 12 13  1  0  0  0
 13 14  1  0  0  0
 14 15  1  0  0  0
 15 16  2  0  0  0
 16 17  1  0  0  0
 17 18  2  0  0  0
 18 19  1  0  0  0
 18 20  1  0  0  0
 20 21  2  0  0  0
  4  5  1  0  0  0
  5  6  1  0  0  0
  6  1  1  0  0  0
 21 15  1  0  0  0
M  END
> <minimizedAffinity>
-5.32737

> <CNNscore>
0.5872819424

> <CNNaffinity>
4.2807784081

> <CNN_VS>
2.5140237808

> <CNNaffinity_variance>
0.7381241918

$$$$
[H]c1c([H])c(C([H])([H])OC([H])([H])C2([H])C([H])([H])C([H])([H])N(C([H])([H])C([H])([H])C([H])([H])C([H])([H])C([H])([H])[H])C([H])([H])C2([H])[H])c([H])c([H])c1F


 21 22  0  0  0  0  0  0  0  0999 V2000
   39.0357  -19.8254   35.2866 N   0  0  0  0  0  0  0  0  0  0  0  0
   38.6573  -19.4706   33.9754 C   0  0  0  0  0  0  0  0  0  0  0  0
   37.6201  -18.4254   33.8239 C   0  0  0  0  0  0  0  0  0  0  0  0
   36.4190  -18.8472   34.6618 C   0  0  0  0  0  0  0  0  0  0  0  0
   36.9192  -18.8311   36.0897 C   0  0  0  0  0  0  0  0  0  0  0  0
   38.1148  -19.6673   36.3331 C   0  0  0  0  0  0  0  0  0  0  0  0
   39.6838  -21.1109   35.2454 C   0  0  0  0  0  0  0  0  0  0  0  0
   39.2952  -21.9654   34.0922 C   0  0  0  0  0  0  0  0  0  0  0  0
   39.9274  -23.3322   34.1638 C   0  0  0  0  0  0  0  0  0  0  0  0
   39.3745  -25.7166   34.3045 C   0  0  0  0  0  0  0  0  0  0  0  0
   39.0056  -24.4081   33.6500 C   0  0  0  0  0  0  0  0  0  0  0  0
   35.2944  -17.8457   34.5455 C   0  0  0  0  0  0  0  0  0  0  0  0
   34.7380  -17.6121   35.8045 O   0  0  0  0  0  0  0  0  0  0  0  0
   34.2179  -16.3215   35.8526 C   0  0  0  0  0  0  0  0  0  0  0  0
   35.2665  -15.4154   36.4134 C   0  0  0  0  0  0  0  0  0  0  0  0
   36.1959  -15.8771   37.3279 C   0  0  0  0  0  0  0  0  0  0  0  0
   37.1734  -15.0615   37.8603 C   0  0  0  0  0  0  0  0  0  0  0  0
   37.2567  -13.7348   37.4908 C   0  0  0  0  0  0  0  0  0  0  0  0
   38.2141  -12.9067   38.0027 F   0  0  0  0  0  0  0  0  0  0  0  0
   36.3330  -13.2682   36.5795 C   0  0  0  0  0  0  0  0  0  0  0  0
   35.3465  -14.0896   36.0416 C   0  0  0  0  0  0  0  0  0  0  0  0
 10 11  1  0  0  0
 11  9  1  0  0  0
  9  8  1  0  0  0
  8  7  1  0  0  0
  7  1  1  0  0  0
  1  2  1  0  0  0
  2  3  1  0  0  0
  3  4  1  0  0  0
  4 12  1  0  0  0
 12 13  1  0  0  0
 13 14  1  0  0  0
 14 15  1  0  0  0
 15 16  2  0  0  0
 16 17  1  0  0  0
 17 18  2  0  0  0
 18 19  1  0  0  0
 18 20  1  0  0  0
 20 21  2  0  0  0
  4  5  1  0  0  0
  5  6  1  0  0  0
  6  1  1  0  0  0
 21 15  1  0  0  0
M  END
> <minimizedAffinity>
-5.09455

> <CNNscore>
0.5691872835

> <CNNaffinity>
4.3580980301

> <CNN_VS>
2.4805738926

> <CNNaffinity_variance>
0.5042893291

$$$$
[H]c1c([H])c(C([H])([H])OC([H])([H])C2([H])C([H])([H])C([H])([H])N(C([H])([H])C([H])([H])C([H])([H])C([H])([H])C([H])([H])[H])C([H])([H])C2([H])[H])c([H])c([H])c1F


 21 22  0  0  0  0  0  0  0  0999 V2000
   31.9791  -19.9684   35.6632 N   0  0  0  0  0  0  0  0  0  0  0  0
   33.0365  -20.3396   36.5191 C   0  0  0  0  0  0  0  0  0  0  0  0
   34.2473  -19.4880   36.5164 C   0  0  0  0  0  0  0  0  0  0  0  0
   34.7123  -19.3577   35.0710 C   0  0  0  0  0  0  0  0  0  0  0  0
   33.5952  -18.6150   34.3711 C   0  0  0  0  0  0  0  0  0  0  0  0
   32.2636  -19.2470   34.4940 C   0  0  0  0  0  0  0  0  0  0  0  0
   31.1215  -21.1095   35.4717 C   0  0  0  0  0  0  0  0  0  0  0  0
   31.7283  -22.2176   34.6875 C   0  0  0  0  0  0  0  0  0  0  0  0
   31.4376  -23.5657   35.2967 C   0  0  0  0  0  0  0  0  0  0  0  0
   31.1483  -24.8666   33.2388 C   0  0  0  0  0  0  0  0  0  0  0  0
   30.4511  -24.3554   34.4755 C   0  0  0  0  0  0  0  0  0  0  0  0
   35.9663  -18.5213   34.9751 C   0  0  0  0  0  0  0  0  0  0  0  0
   35.6287  -17.1672   34.9323 O   0  0  0  0  0  0  0  0  0  0  0  0
   36.3923  -16.4663   35.8619 C   0  0  0  0  0  0  0  0  0  0  0  0
   35.6571  -15.2157   36.2232 C   0  0  0  0  0  0  0  0  0  0  0  0
   36.3357  -14.0707   36.5996 C   0  0  0  0  0  0  0  0  0  0  0  0
   35.6808  -12.9041   36.9377 C   0  0  0  0  0  0  0  0  0  0  0  0
   34.3028  -12.8411   36.9107 C   0  0  0  0  0  0  0  0  0  0  0  0
   33.6307  -11.6992   37.2407 F   0  0  0  0  0  0  0  0  0  0  0  0
   33.6203  -13.9793   36.5364 C   0  0  0  0  0  0  0  0  0  0  0  0
   34.2794  -15.1568   36.1951 C   0  0  0  0  0  0  0  0  0  0  0  0
 10 11  1  0  0  0
 11  9  1  0  0  0
  9  8  1  0  0  0
  8  7  1  0  0  0
  7  1  1  0  0  0
  1  2  1  0  0  0
  2  3  1  0  0  0
  3  4  1  0  0  0
  4 12  1  0  0  0
 12 13  1  0  0  0
 13 14  1  0  0  0
 14 15  1  0  0  0
 15 16  2  0  0  0
 16 17  1  0  0  0
 17 18  2  0  0  0
 18 19  1  0  0  0
 18 20  1  0  0  0
 20 21  2  0  0  0
  4  5  1  0  0  0
  5  6  1  0  0  0
  6  1  1  0  0  0
 21 15  1  0  0  0
M  END
> <minimizedAffinity>
-5.52316

> <CNNscore>
0.5681720972

> <CNNaffinity>
4.5213479996

> <CNN_VS>
2.5689036846

> <CNNaffinity_variance>
0.5588885546

$$$$
[H]c1c([H])c(C([H])([H])OC([H])([H])C2([H])C([H])([H])C([H])([H])N(C([H])([H])C([H])([H])C([H])([H])C([H])([H])C([H])([H])[H])C([H])([H])C2([H])[H])c([H])c([H])c1F


 21 22  0  0  0  0  0  0  0  0999 V2000
   38.7466  -18.9441   34.5994 N   0  0  0  0  0  0  0  0  0  0  0  0
   37.7540  -18.4302   33.7397 C   0  0  0  0  0  0  0  0  0  0  0  0
   36.7471  -17.5187   34.3282 C   0  0  0  0  0  0  0  0  0  0  0  0
   36.1374  -18.2260   35.5326 C   0  0  0  0  0  0  0  0  0  0  0  0
   37.2819  -18.3808   36.5101 C   0  0  0  0  0  0  0  0  0  0  0  0
   38.4654  -19.0824   35.9669 C   0  0  0  0  0  0  0  0  0  0  0  0
   39.3279  -20.1095   33.9845 C   0  0  0  0  0  0  0  0  0  0  0  0
   40.8132  -20.0987   33.9139 C   0  0  0  0  0  0  0  0  0  0  0  0
   41.3439  -18.7911   33.3837 C   0  0  0  0  0  0  0  0  0  0  0  0
   43.1351  -19.1660   35.0154 C   0  0  0  0  0  0  0  0  0  0  0  0
   42.2668  -18.1167   34.3659 C   0  0  0  0  0  0  0  0  0  0  0  0
   35.0737  -17.3745   36.1841 C   0  0  0  0  0  0  0  0  0  0  0  0
   33.8095  -17.8030   35.7749 O   0  0  0  0  0  0  0  0  0  0  0  0
   33.8410  -19.1709   35.5176 C   0  0  0  0  0  0  0  0  0  0  0  0
   32.4410  -19.6914   35.5831 C   0  0  0  0  0  0  0  0  0  0  0  0
   31.4166  -19.0775   34.8853 C   0  0  0  0  0  0  0  0  0  0  0  0
   30.1165  -19.5380   34.9290 C   0  0  0  0  0  0  0  0  0  0  0  0
   29.7906  -20.6458   35.6840 C   0  0  0  0  0  0  0  0  0  0  0  0
   28.5121  -21.1216   35.7443 F   0  0  0  0  0  0  0  0  0  0  0  0
   30.8073  -21.2624   36.3822 C   0  0  0  0  0  0  0  0  0  0  0  0
   32.1192  -20.7992   36.3392 C   0  0  0  0  0  0  0  0  0  0  0  0
 10 11  1  0  0  0
 11  9  1  0  0  0
  9  8  1  0  0  0
  8  7  1  0  0  0
  7  1  1  0  0  0
  1  2  1  0  0  0
  2  3  1  0  0  0
  3  4  1  0  0  0
  4 12  1  0  0  0
 12 13  1  0  0  0
 13 14  1  0  0  0
 14 15  1  0  0  0
 15 16  2  0  0  0
 16 17  1  0  0  0
 17 18  2  0  0  0
 18 19  1  0  0  0
 18 20  1  0  0  0
 20 21  2  0  0  0
  4  5  1  0  0  0
  5  6  1  0  0  0
  6  1  1  0  0  0
 21 15  1  0  0  0
M  END
> <minimizedAffinity>
-4.71337

> <CNNscore>
0.5650163293

> <CNNaffinity>
4.2203354836

> <CNN_VS>
2.3845584393

> <CNNaffinity_variance>
0.6443396807

$$$$
[H]c1c([H])c(C([H])([H])OC([H])([H])C2([H])C([H])([H])C([H])([H])N(C([H])([H])C([H])([H])C([H])([H])C([H])([H])C([H])([H])[H])C([H])([H])C2([H])[H])c([H])c([H])c1F


 21 22  0  0  0  0  0  0  0  0999 V2000
   35.4475  -19.1060   35.5380 N   0  0  0  0  0  0  0  0  0  0  0  0
   34.5335  -19.2581   36.6009 C   0  0  0  0  0  0  0  0  0  0  0  0
   33.1534  -19.6708   36.2601 C   0  0  0  0  0  0  0  0  0  0  0  0
   32.6332  -18.7024   35.2046 C   0  0  0  0  0  0  0  0  0  0  0  0
   33.5196  -18.9312   33.9999 C   0  0  0  0  0  0  0  0  0  0  0  0
   34.9672  -18.7763   34.2617 C   0  0  0  0  0  0  0  0  0  0  0  0
   36.5498  -18.2981   35.9925 C   0  0  0  0  0  0  0  0  0  0  0  0
   36.2765  -17.5114   37.2243 C   0  0  0  0  0  0  0  0  0  0  0  0
   36.4413  -16.0302   36.9966 C   0  0  0  0  0  0  0  0  0  0  0  0
   34.4208  -14.6881   36.6395 C   0  0  0  0  0  0  0  0  0  0  0  0
   35.4851  -15.5096   35.9546 C   0  0  0  0  0  0  0  0  0  0  0  0
   31.2125  -19.0337   34.8136 C   0  0  0  0  0  0  0  0  0  0  0  0
   30.5331  -19.5673   35.9103 O   0  0  0  0  0  0  0  0  0  0  0  0
   29.5977  -20.5004   35.4709 C   0  0  0  0  0  0  0  0  0  0  0  0
   28.9215  -21.0846   36.6695 C   0  0  0  0  0  0  0  0  0  0  0  0
   27.8490  -20.4474   37.2670 C   0  0  0  0  0  0  0  0  0  0  0  0
   27.2079  -20.9655   38.3736 C   0  0  0  0  0  0  0  0  0  0  0  0
   27.6236  -22.1577   38.9300 C   0  0  0  0  0  0  0  0  0  0  0  0
   27.0065  -22.6918   40.0247 F   0  0  0  0  0  0  0  0  0  0  0  0
   28.6924  -22.7980   38.3391 C   0  0  0  0  0  0  0  0  0  0  0  0
   29.3401  -22.2767   37.2228 C   0  0  0  0  0  0  0  0  0  0  0  0
 10 11  1  0  0  0
 11  9  1  0  0  0
  9  8  1  0  0  0
  8  7  1  0  0  0
  7  1  1  0  0  0
  1  2  1  0  0  0
  2  3  1  0  0  0
  3  4  1  0  0  0
  4 12  1  0  0  0
 12 13  1  0  0  0
 13 14  1  0  0  0
 14 15  1  0  0  0
 15 16  2  0  0  0
 16 17  1  0  0  0
 17 18  2  0  0  0
 18 19  1  0  0  0
 18 20  1  0  0  0
 20 21  2  0  0  0
  4  5  1  0  0  0
  5  6  1  0  0  0
  6  1  1  0  0  0
 21 15  1  0  0  0
M  END
> <minimizedAffinity>
-4.77867

> <CNNscore>
0.5288570523

> <CNNaffinity>
4.2685880661

> <CNN_VS>
2.2574729919

> <CNNaffinity_variance>
1.0515525341

$$$$
[H]c1c([H])c(C([H])([H])OC([H])([H])C2([H])C([H])([H])C([H])([H])N(C([H])([H])C([H])([H])C([H])([H])C([H])([H])C([H])([H])[H])C([H])([H])C2([H])[H])c([H])c([H])c1F


 21 22  0  0  0  0  0  0  0  0999 V2000
   33.0754  -18.9210   33.9261 N   0  0  0  0  0  0  0  0  0  0  0  0
   32.7275  -17.9499   34.8875 C   0  0  0  0  0  0  0  0  0  0  0  0
   33.7974  -17.0414   35.3576 C   0  0  0  0  0  0  0  0  0  0  0  0
   34.9599  -17.9076   35.8277 C   0  0  0  0  0  0  0  0  0  0  0  0
   35.4402  -18.6190   34.5817 C   0  0  0  0  0  0  0  0  0  0  0  0
   34.3966  -19.3899   33.8714 C   0  0  0  0  0  0  0  0  0  0  0  0
   32.0711  -19.9532   33.9320 C   0  0  0  0  0  0  0  0  0  0  0  0
   32.4055  -21.1402   34.7628 C   0  0  0  0  0  0  0  0  0  0  0  0
   31.4223  -21.3367   35.8886 C   0  0  0  0  0  0  0  0  0  0  0  0
   29.0035  -21.6684   35.6640 C   0  0  0  0  0  0  0  0  0  0  0  0
   30.1109  -20.6444   35.6201 C   0  0  0  0  0  0  0  0  0  0  0  0
   36.0942  -17.0596   36.3525 C   0  0  0  0  0  0  0  0  0  0  0  0
   36.0510  -15.7952   35.7621 O   0  0  0  0  0  0  0  0  0  0  0  0
   36.6119  -14.8577   36.6253 C   0  0  0  0  0  0  0  0  0  0  0  0
   35.5828  -13.8117   36.9120 C   0  0  0  0  0  0  0  0  0  0  0  0
   34.4883  -14.0856   37.7121 C   0  0  0  0  0  0  0  0  0  0  0  0
   33.5250  -13.1381   37.9918 C   0  0  0  0  0  0  0  0  0  0  0  0
   33.6243  -11.8636   37.4729 C   0  0  0  0  0  0  0  0  0  0  0  0
   32.6848  -10.9078   37.7343 F   0  0  0  0  0  0  0  0  0  0  0  0
   34.7131  -11.5840   36.6744 C   0  0  0  0  0  0  0  0  0  0  0  0
   35.6857  -12.5386   36.3912 C   0  0  0  0  0  0  0  0  0  0  0  0
 10 11  1  0  0  0
 11  9  1  0  0  0
  9  8  1  0  0  0
  8  7  1  0  0  0
  7  1  1  0  0  0
  1  2  1  0  0  0
  2  3  1  0  0  0
  3  4  1  0  0  0
  4 12  1  0  0  0
 12 13  1  0  0  0
 13 14  1  0  0  0
 14 15  1  0  0  0
 15 16  2  0  0  0
 16 17  1  0  0  0
 17 18  2  0  0  0
 18 19  1  0  0  0
 18 20  1  0  0  0
 20 21  2  0  0  0
  4  5  1  0  0  0
  5  6  1  0  0  0
  6  1  1  0  0  0
 21 15  1  0  0  0
M  END
> <minimizedAffinity>
-5.95346

> <CNNscore>
0.5229156613

> <CNNaffinity>
4.7653112411

> <CNN_VS>
2.4918558598

> <CNNaffinity_variance>
0.5005413294

$$$$
[H]c1c([H])c(C([H])([H])OC([H])([H])C2([H])C([H])([H])C([H])([H])N(C([H])([H])C([H])([H])C([H])([H])C([H])([H])C([H])([H])[H])C([H])([H])C2([H])[H])c([H])c([H])c1F


 21 22  0  0  0  0  0  0  0  0999 V2000
   31.8828  -20.8378   35.4525 N   0  0  0  0  0  0  0  0  0  0  0  0
   31.3541  -19.5868   35.0729 C   0  0  0  0  0  0  0  0  0  0  0  0
   32.3085  -18.5564   34.6056 C   0  0  0  0  0  0  0  0  0  0  0  0
   33.3857  -18.4115   35.6739 C   0  0  0  0  0  0  0  0  0  0  0  0
   34.0899  -19.7505   35.6967 C   0  0  0  0  0  0  0  0  0  0  0  0
   33.2011  -20.9103   35.9268 C   0  0  0  0  0  0  0  0  0  0  0  0
   30.9115  -21.5174   36.2704 C   0  0  0  0  0  0  0  0  0  0  0  0
   29.4952  -21.2367   35.9153 C   0  0  0  0  0  0  0  0  0  0  0  0
   28.6434  -22.4796   35.9650 C   0  0  0  0  0  0  0  0  0  0  0  0
   27.7841  -21.1155   37.8121 C   0  0  0  0  0  0  0  0  0  0  0  0
   27.6371  -22.4298   37.0857 C   0  0  0  0  0  0  0  0  0  0  0  0
   34.3949  -17.3552   35.2909 C   0  0  0  0  0  0  0  0  0  0  0  0
   34.0048  -16.1191   35.8099 O   0  0  0  0  0  0  0  0  0  0  0  0
   35.1315  -15.3368   36.0489 C   0  0  0  0  0  0  0  0  0  0  0  0
   34.6777  -14.0081   36.5626 C   0  0  0  0  0  0  0  0  0  0  0  0
   33.5294  -13.8904   37.3247 C   0  0  0  0  0  0  0  0  0  0  0  0
   33.0893  -12.6761   37.8106 C   0  0  0  0  0  0  0  0  0  0  0  0
   33.7934  -11.5192   37.5470 C   0  0  0  0  0  0  0  0  0  0  0  0
   33.3795  -10.3054   38.0158 F   0  0  0  0  0  0  0  0  0  0  0  0
   34.9391  -11.6298   36.7877 C   0  0  0  0  0  0  0  0  0  0  0  0
   35.3843  -12.8538   36.2968 C   0  0  0  0  0  0  0  0  0  0  0  0
 10 11  1  0  0  0
 11  9  1  0  0  0
  9  8  1  0  0  0
  8  7  1  0  0  0
  7  1  1  0  0  0
  1  2  1  0  0  0
  2  3  1  0  0  0
  3  4  1  0  0  0
  4 12  1  0  0  0
 12 13  1  0  0  0
 13 14  1  0  0  0
 14 15  1  0  0  0
 15 16  2  0  0  0
 16 17  1  0  0  0
 17 18  2  0  0  0
 18 19  1  0  0  0
 18 20  1  0  0  0
 20 21  2  0  0  0
  4  5  1  0  0  0
  5  6  1  0  0  0
  6  1  1  0  0  0
 21 15  1  0  0  0
M  END
> <minimizedAffinity>
-5.72666

> <CNNscore>
0.4664492607

> <CNNaffinity>
4.3178176880

> <CNN_VS>
2.0140428543

> <CNNaffinity_variance>
0.7261229753

$$$$
[H]c1c([H])c([H])c([C@@]2([H])C([H])([H])[C@]2([H])N([H])C([H])([H])C2([H])C([H])([H])C([H])([H])N([H])C([H])([H])C2([H])[H])c([H])c1[H]


 19 21  0  0  0  0  0  0  0  0999 V2000
   38.3372  -19.8258   33.3996 N   0  0  0  0  0  0  0  0  0  0  0  0
   38.9643  -19.0479   33.1397 H   0  0  0  0  0  0  0  0  0  0  0  0
   36.2112  -18.4380   33.6604 C   0  0  0  0  0  0  0  0  0  0  0  0
   37.2955  -17.9537   34.6279 C   0  0  0  0  0  0  0  0  0  0  0  0
   37.1907  -19.4178   34.1878 C   0  0  0  0  0  0  0  0  0  0  0  0
   32.1834  -18.8998   35.1104 C   0  0  0  0  0  0  0  0  0  0  0  0
   32.7456  -19.8053   34.2356 C   0  0  0  0  0  0  0  0  0  0  0  0
   34.0536  -19.6349   33.7790 C   0  0  0  0  0  0  0  0  0  0  0  0
   34.8275  -18.5725   34.1755 C   0  0  0  0  0  0  0  0  0  0  0  0
   34.2587  -17.6708   35.0506 C   0  0  0  0  0  0  0  0  0  0  0  0
   32.9551  -17.8344   35.5098 C   0  0  0  0  0  0  0  0  0  0  0  0
   39.0037  -20.8729   34.1460 C   0  0  0  0  0  0  0  0  0  0  0  0
   40.4659  -20.9938   33.8330 C   0  0  0  0  0  0  0  0  0  0  0  0
   41.2521  -20.8611   35.1060 C   0  0  0  0  0  0  0  0  0  0  0  0
   41.1917  -19.5073   35.7351 C   0  0  0  0  0  0  0  0  0  0  0  0
   40.8477  -18.4592   34.7901 N   0  0  0  0  0  0  0  0  0  0  0  0
   41.5948  -18.7753   33.5630 C   0  0  0  0  0  0  0  0  0  0  0  0
   40.8030  -19.8689   32.8603 C   0  0  0  0  0  0  0  0  0  0  0  0
   41.1171  -17.5480   35.1746 H   0  0  0  0  0  0  0  0  0  0  0  0
  6  7  2  0  0  0
  7  8  1  0  0  0
  8  9  2  0  0  0
  9  3  1  0  0  0
  3  4  1  0  0  0
  4  5  1  0  0  0
  5  1  1  0  0  0
  1 12  1  0  0  0
 12 13  1  0  0  0
 13 14  1  0  0  0
 14 15  1  0  0  0
 15 16  1  0  0  0
 16 17  1  0  0  0
 17 18  1  0  0  0
  9 10  1  0  0  0
 10 11  2  0  0  0
 11  6  1  0  0  0
  5  3  1  0  0  0
 18 13  1  0  0  0
  1  2  1  0  0  0
 16 19  1  0  0  0
M  END
> <minimizedAffinity>
-4.87964

> <CNNscore>
0.7704580426

> <CNNaffinity>
4.1350121498

> <CNN_VS>
3.1858534813

> <CNNaffinity_variance>
0.3878969252

$$$$
[H]c1c([H])c([H])c([C@@]2([H])C([H])([H])[C@]2([H])N([H])C([H])([H])C2([H])C([H])([H])C([H])([H])N([H])C([H])([H])C2([H])[H])c([H])c1[H]


 19 21  0  0  0  0  0  0  0  0999 V2000
   37.1427  -19.1613   33.7001 N   0  0  0  0  0  0  0  0  0  0  0  0
   36.7835  -19.5405   32.8096 H   0  0  0  0  0  0  0  0  0  0  0  0
   35.8687  -18.0548   35.6149 C   0  0  0  0  0  0  0  0  0  0  0  0
   34.9128  -18.4452   34.4834 C   0  0  0  0  0  0  0  0  0  0  0  0
   36.3697  -18.0502   34.2197 C   0  0  0  0  0  0  0  0  0  0  0  0
   35.4496  -14.1950   37.4766 C   0  0  0  0  0  0  0  0  0  0  0  0
   36.5189  -15.0200   37.7545 C   0  0  0  0  0  0  0  0  0  0  0  0
   36.6337  -16.2673   37.1386 C   0  0  0  0  0  0  0  0  0  0  0  0
   35.6995  -16.7215   36.2409 C   0  0  0  0  0  0  0  0  0  0  0  0
   34.6326  -15.8912   35.9677 C   0  0  0  0  0  0  0  0  0  0  0  0
   34.5118  -14.6464   36.5782 C   0  0  0  0  0  0  0  0  0  0  0  0
   38.5162  -18.7095   33.6167 C   0  0  0  0  0  0  0  0  0  0  0  0
   39.4435  -19.4366   34.5453 C   0  0  0  0  0  0  0  0  0  0  0  0
   40.7845  -18.7600   34.5275 C   0  0  0  0  0  0  0  0  0  0  0  0
   41.5167  -18.8665   33.2296 C   0  0  0  0  0  0  0  0  0  0  0  0
   41.0795  -19.9933   32.4240 N   0  0  0  0  0  0  0  0  0  0  0  0
   40.8945  -21.1046   33.3700 C   0  0  0  0  0  0  0  0  0  0  0  0
   39.5452  -20.8695   34.0340 C   0  0  0  0  0  0  0  0  0  0  0  0
   41.7922  -20.2091   31.7196 H   0  0  0  0  0  0  0  0  0  0  0  0
  6  7  2  0  0  0
  7  8  1  0  0  0
  8  9  2  0  0  0
  9  3  1  0  0  0
  3  4  1  0  0  0
  4  5  1  0  0  0
  5  1  1  0  0  0
  1 12  1  0  0  0
 12 13  1  0  0  0
 13 14  1  0  0  0
 14 15  1  0  0  0
 15 16  1  0  0  0
 16 17  1  0  0  0
 17 18  1  0  0  0
  9 10  1  0  0  0
 10 11  2  0  0  0
 11  6  1  0  0  0
  5  3  1  0  0  0
 18 13  1  0  0  0
  1  2  1  0  0  0
 16 19  1  0  0  0
M  END
> <minimizedAffinity>
-6.05643

> <CNNscore>
0.7646482587

> <CNNaffinity>
4.1593074799

> <CNN_VS>
3.1804072857

> <CNNaffinity_variance>
0.4447486401

$$$$
[H]c1c([H])c([H])c([C@@]2([H])C([H])([H])[C@]2([H])N([H])C([H])([H])C2([H])C([H])([H])C([H])([H])N([H])C([H])([H])C2([H])[H])c([H])c1[H]


 19 21  0  0  0  0  0  0  0  0999 V2000
   37.7298  -18.5957   33.2251 N   0  0  0  0  0  0  0  0  0  0  0  0
   38.0536  -17.6155   33.2465 H   0  0  0  0  0  0  0  0  0  0  0  0
   35.2772  -18.4497   33.9159 C   0  0  0  0  0  0  0  0  0  0  0  0
   36.1539  -17.6136   34.8532 C   0  0  0  0  0  0  0  0  0  0  0  0
   36.6709  -18.8852   34.1721 C   0  0  0  0  0  0  0  0  0  0  0  0
   32.2306  -20.8780   35.7491 C   0  0  0  0  0  0  0  0  0  0  0  0
   33.1079  -20.1272   36.5026 C   0  0  0  0  0  0  0  0  0  0  0  0
   34.0877  -19.3473   35.8860 C   0  0  0  0  0  0  0  0  0  0  0  0
   34.2191  -19.2942   34.5204 C   0  0  0  0  0  0  0  0  0  0  0  0
   33.3382  -20.0476   33.7730 C   0  0  0  0  0  0  0  0  0  0  0  0
   32.3590  -20.8275   34.3812 C   0  0  0  0  0  0  0  0  0  0  0  0
   38.7870  -19.5528   33.4779 C   0  0  0  0  0  0  0  0  0  0  0  0
   40.0880  -18.9181   33.8720 C   0  0  0  0  0  0  0  0  0  0  0  0
   41.1978  -19.5379   33.0716 C   0  0  0  0  0  0  0  0  0  0  0  0
   41.4599  -20.9755   33.3826 C   0  0  0  0  0  0  0  0  0  0  0  0
   40.9926  -21.3633   34.7021 N   0  0  0  0  0  0  0  0  0  0  0  0
   41.3415  -20.2421   35.5881 C   0  0  0  0  0  0  0  0  0  0  0  0
   40.2734  -19.1815   35.3624 C   0  0  0  0  0  0  0  0  0  0  0  0
   41.4551  -22.2319   34.9888 H   0  0  0  0  0  0  0  0  0  0  0  0
  6  7  2  0  0  0
  7  8  1  0  0  0
  8  9  2  0  0  0
  9  3  1  0  0  0
  3  4  1  0  0  0
  4  5  1  0  0  0
  5  1  1  0  0  0
  1 12  1  0  0  0
 12 13  1  0  0  0
 13 14  1  0  0  0
 14 15  1  0  0  0
 15 16  1  0  0  0
 16 17  1  0  0  0
 17 18  1  0  0  0
  9 10  1  0  0  0
 10 11  2  0  0  0
 11  6  1  0  0  0
  5  3  1  0  0  0
 18 13  1  0  0  0
  1  2  1  0  0  0
 16 19  1  0  0  0
M  END
> <minimizedAffinity>
-4.78485

> <CNNscore>
0.7507982850

> <CNNaffinity>
3.8880569935

> <CNN_VS>
2.9191465378

> <CNNaffinity_variance>
0.4825713038

$$$$
[H]c1c([H])c([H])c([C@@]2([H])C([H])([H])[C@]2([H])N([H])C([H])([H])C2([H])C([H])([H])C([H])([H])N([H])C([H])([H])C2([H])[H])c([H])c1[H]


 19 21  0  0  0  0  0  0  0  0999 V2000
   31.8772  -18.4847   35.4535 N   0  0  0  0  0  0  0  0  0  0  0  0
   31.5984  -18.3678   34.4663 H   0  0  0  0  0  0  0  0  0  0  0  0
   33.6373  -16.6439   35.2883 C   0  0  0  0  0  0  0  0  0  0  0  0
   34.0695  -17.8787   34.4915 C   0  0  0  0  0  0  0  0  0  0  0  0
   33.2046  -17.9838   35.7521 C   0  0  0  0  0  0  0  0  0  0  0  0
   36.6341  -14.7542   37.7353 C   0  0  0  0  0  0  0  0  0  0  0  0
   36.7953  -16.0367   37.2555 C   0  0  0  0  0  0  0  0  0  0  0  0
   35.8100  -16.6289   36.4637 C   0  0  0  0  0  0  0  0  0  0  0  0
   34.6525  -15.9691   36.1323 C   0  0  0  0  0  0  0  0  0  0  0  0
   34.4980  -14.6866   36.6158 C   0  0  0  0  0  0  0  0  0  0  0  0
   35.4763  -14.0902   37.4058 C   0  0  0  0  0  0  0  0  0  0  0  0
   31.8428  -19.8626   35.8982 C   0  0  0  0  0  0  0  0  0  0  0  0
   30.9938  -20.7494   35.0359 C   0  0  0  0  0  0  0  0  0  0  0  0
   29.6448  -20.9100   35.6767 C   0  0  0  0  0  0  0  0  0  0  0  0
   29.6553  -21.6665   36.9650 C   0  0  0  0  0  0  0  0  0  0  0  0
   30.8132  -22.5326   37.1031 N   0  0  0  0  0  0  0  0  0  0  0  0
   31.0098  -23.1406   35.7781 C   0  0  0  0  0  0  0  0  0  0  0  0
   31.7161  -22.0885   34.9349 C   0  0  0  0  0  0  0  0  0  0  0  0
   30.6294  -23.2400   37.8219 H   0  0  0  0  0  0  0  0  0  0  0  0
  6  7  2  0  0  0
  7  8  1  0  0  0
  8  9  2  0  0  0
  9  3  1  0  0  0
  3  4  1  0  0  0
  4  5  1  0  0  0
  5  1  1  0  0  0
  1 12  1  0  0  0
 12 13  1  0  0  0
 13 14  1  0  0  0
 14 15  1  0  0  0
 15 16  1  0  0  0
 16 17  1  0  0  0
 17 18  1  0  0  0
  9 10  1  0  0  0
 10 11  2  0  0  0
 11  6  1  0  0  0
  5  3  1  0  0  0
 18 13  1  0  0  0
  1  2  1  0  0  0
 16 19  1  0  0  0
M  END
> <minimizedAffinity>
-5.69661

> <CNNscore>
0.7506511807

> <CNNaffinity>
3.8996634483

> <CNN_VS>
2.9272868633

> <CNNaffinity_variance>
0.7341240644

$$$$
[H]c1c([H])c([H])c([C@@]2([H])C([H])([H])[C@]2([H])N([H])C([H])([H])C2([H])C([H])([H])C([H])([H])N([H])C([H])([H])C2([H])[H])c([H])c1[H]


 19 21  0  0  0  0  0  0  0  0999 V2000
   35.3604  -19.2900   34.1498 N   0  0  0  0  0  0  0  0  0  0  0  0
   35.4828  -18.4381   33.5795 H   0  0  0  0  0  0  0  0  0  0  0  0
   32.8874  -19.8303   33.8246 C   0  0  0  0  0  0  0  0  0  0  0  0
   33.0752  -18.3545   34.1896 C   0  0  0  0  0  0  0  0  0  0  0  0
   34.0254  -19.4461   34.6934 C   0  0  0  0  0  0  0  0  0  0  0  0
   29.6720  -21.9318   35.7701 C   0  0  0  0  0  0  0  0  0  0  0  0
   29.6294  -20.5679   35.5718 C   0  0  0  0  0  0  0  0  0  0  0  0
   30.6839  -19.9081   34.9384 C   0  0  0  0  0  0  0  0  0  0  0  0
   31.7949  -20.5791   34.4911 C   0  0  0  0  0  0  0  0  0  0  0  0
   31.8308  -21.9430   34.6928 C   0  0  0  0  0  0  0  0  0  0  0  0
   30.7831  -22.6073   35.3237 C   0  0  0  0  0  0  0  0  0  0  0  0
   36.2767  -19.3654   35.2690 C   0  0  0  0  0  0  0  0  0  0  0  0
   37.3781  -18.3484   35.2110 C   0  0  0  0  0  0  0  0  0  0  0  0
   38.0341  -18.4129   33.8613 C   0  0  0  0  0  0  0  0  0  0  0  0
   38.7812  -19.6788   33.5937 C   0  0  0  0  0  0  0  0  0  0  0  0
   39.1788  -20.3687   34.8085 N   0  0  0  0  0  0  0  0  0  0  0  0
   39.6290  -19.3143   35.7302 C   0  0  0  0  0  0  0  0  0  0  0  0
   38.3647  -18.7036   36.3180 C   0  0  0  0  0  0  0  0  0  0  0  0
   39.9297  -21.0333   34.5961 H   0  0  0  0  0  0  0  0  0  0  0  0
  6  7  2  0  0  0
  7  8  1  0  0  0
  8  9  2  0  0  0
  9  3  1  0  0  0
  3  4  1  0  0  0
  4  5  1  0  0  0
  5  1  1  0  0  0
  1 12  1  0  0  0
 12 13  1  0  0  0
 13 14  1  0  0  0
 14 15  1  0  0  0
 15 16  1  0  0  0
 16 17  1  0  0  0
 17 18  1  0  0  0
  9 10  1  0  0  0
 10 11  2  0  0  0
 11  6  1  0  0  0
  5  3  1  0  0  0
 18 13  1  0  0  0
  1  2  1  0  0  0
 16 19  1  0  0  0
M  END
> <minimizedAffinity>
-5.00538

> <CNNscore>
0.7432856560

> <CNNaffinity>
4.0139846802

> <CNN_VS>
2.9835371971

> <CNNaffinity_variance>
0.4260920882

$$$$
[H]c1c([H])c([H])c([C@@]2([H])C([H])([H])[C@]2([H])N([H])C([H])([H])C2([H])C([H])([H])C([H])([H])N([H])C([H])([H])C2([H])[H])c([H])c1[H]


 19 21  0  0  0  0  0  0  0  0999 V2000
   33.5030  -17.8367   34.8305 N   0  0  0  0  0  0  0  0  0  0  0  0
   33.3331  -16.8183   34.8190 H   0  0  0  0  0  0  0  0  0  0  0  0
   32.3548  -20.1007   35.0944 C   0  0  0  0  0  0  0  0  0  0  0  0
   32.1562  -19.5554   33.6768 C   0  0  0  0  0  0  0  0  0  0  0  0
   32.2932  -18.6333   34.8929 C   0  0  0  0  0  0  0  0  0  0  0  0
   29.0141  -21.9033   37.1266 C   0  0  0  0  0  0  0  0  0  0  0  0
   30.3142  -22.2630   37.4121 C   0  0  0  0  0  0  0  0  0  0  0  0
   31.3815  -21.6647   36.7401 C   0  0  0  0  0  0  0  0  0  0  0  0
   31.1862  -20.7046   35.7784 C   0  0  0  0  0  0  0  0  0  0  0  0
   29.8832  -20.3497   35.4981 C   0  0  0  0  0  0  0  0  0  0  0  0
   28.8144  -20.9422   36.1641 C   0  0  0  0  0  0  0  0  0  0  0  0
   34.3400  -18.2644   35.9323 C   0  0  0  0  0  0  0  0  0  0  0  0
   35.6725  -17.5763   35.9746 C   0  0  0  0  0  0  0  0  0  0  0  0
   36.3267  -17.6920   34.6274 C   0  0  0  0  0  0  0  0  0  0  0  0
   36.7197  -19.0818   34.2450 C   0  0  0  0  0  0  0  0  0  0  0  0
   36.8853  -19.9585   35.3912 N   0  0  0  0  0  0  0  0  0  0  0  0
   37.5717  -19.1488   36.4097 C   0  0  0  0  0  0  0  0  0  0  0  0
   36.4976  -18.2789   37.0472 C   0  0  0  0  0  0  0  0  0  0  0  0
   37.4394  -20.7772   35.1203 H   0  0  0  0  0  0  0  0  0  0  0  0
  6  7  2  0  0  0
  7  8  1  0  0  0
  8  9  2  0  0  0
  9  3  1  0  0  0
  3  4  1  0  0  0
  4  5  1  0  0  0
  5  1  1  0  0  0
  1 12  1  0  0  0
 12 13  1  0  0  0
 13 14  1  0  0  0
 14 15  1  0  0  0
 15 16  1  0  0  0
 16 17  1  0  0  0
 17 18  1  0  0  0
  9 10  1  0  0  0
 10 11  2  0  0  0
 11  6  1  0  0  0
  5  3  1  0  0  0
 18 13  1  0  0  0
  1  2  1  0  0  0
 16 19  1  0  0  0
M  END
> <minimizedAffinity>
-4.73489

> <CNNscore>
0.7316142917

> <CNNaffinity>
4.0348672867

> <CNN_VS>
2.9519665241

> <CNNaffinity_variance>
0.6593851447

$$$$
[H]c1c([H])c([H])c([C@@]2([H])C([H])([H])[C@]2([H])N([H])C([H])([H])C2([H])C([H])([H])C([H])([H])N([H])C([H])([H])C2([H])[H])c([H])c1[H]


 19 21  0  0  0  0  0  0  0  0999 V2000
   36.0589  -17.7811   35.0109 N   0  0  0  0  0  0  0  0  0  0  0  0
   36.2058  -16.7710   34.8553 H   0  0  0  0  0  0  0  0  0  0  0  0
   33.5770  -18.2632   34.6622 C   0  0  0  0  0  0  0  0  0  0  0  0
   33.7713  -16.9408   35.4105 C   0  0  0  0  0  0  0  0  0  0  0  0
   34.7537  -18.1085   35.5506 C   0  0  0  0  0  0  0  0  0  0  0  0
   30.5785  -20.9896   36.1167 C   0  0  0  0  0  0  0  0  0  0  0  0
   31.8804  -21.0380   36.5683 C   0  0  0  0  0  0  0  0  0  0  0  0
   32.8355  -20.1435   36.0822 C   0  0  0  0  0  0  0  0  0  0  0  0
   32.5247  -19.1890   35.1457 C   0  0  0  0  0  0  0  0  0  0  0  0
   31.2207  -19.1464   34.6984 C   0  0  0  0  0  0  0  0  0  0  0  0
   30.2634  -20.0351   35.1786 C   0  0  0  0  0  0  0  0  0  0  0  0
   37.0371  -18.3707   35.9015 C   0  0  0  0  0  0  0  0  0  0  0  0
   37.5280  -19.7137   35.4473 C   0  0  0  0  0  0  0  0  0  0  0  0
   38.8301  -20.0167   36.1322 C   0  0  0  0  0  0  0  0  0  0  0  0
   39.9644  -19.1316   35.7296 C   0  0  0  0  0  0  0  0  0  0  0  0
   39.7671  -18.5152   34.4292 N   0  0  0  0  0  0  0  0  0  0  0  0
   39.1885  -19.5671   33.5791 C   0  0  0  0  0  0  0  0  0  0  0  0
   37.7101  -19.6284   33.9357 C   0  0  0  0  0  0  0  0  0  0  0  0
   40.6667  -18.1850   34.0654 H   0  0  0  0  0  0  0  0  0  0  0  0
  6  7  2  0  0  0
  7  8  1  0  0  0
  8  9  2  0  0  0
  9  3  1  0  0  0
  3  4  1  0  0  0
  4  5  1  0  0  0
  5  1  1  0  0  0
  1 12  1  0  0  0
 12 13  1  0  0  0
 13 14  1  0  0  0
 14 15  1  0  0  0
 15 16  1  0  0  0
 16 17  1  0  0  0
 17 18  1  0  0  0
  9 10  1  0  0  0
 10 11  2  0  0  0
 11  6  1  0  0  0
  5  3  1  0  0  0
 18 13  1  0  0  0
  1  2  1  0  0  0
 16 19  1  0  0  0
M  END
> <minimizedAffinity>
-4.57955

> <CNNscore>
0.6985868216

> <CNNaffinity>
4.0311765671

> <CNN_VS>
2.8161268234

> <CNNaffinity_variance>
0.5580430031

$$$$
[H]c1c([H])c([H])c([C@@]2([H])C([H])([H])[C@]2([H])N([H])C([H])([H])C2([H])C([H])([H])C([H])([H])N([H])C([H])([H])C2([H])[H])c([H])c1[H]


 19 21  0  0  0  0  0  0  0  0999 V2000
   35.4439  -19.4489   36.2254 N   0  0  0  0  0  0  0  0  0  0  0  0
   36.1726  -20.1047   36.5495 H   0  0  0  0  0  0  0  0  0  0  0  0
   35.9066  -16.9887   35.7285 C   0  0  0  0  0  0  0  0  0  0  0  0
   37.0778  -17.6162   36.4907 C   0  0  0  0  0  0  0  0  0  0  0  0
   35.6327  -18.0871   36.6857 C   0  0  0  0  0  0  0  0  0  0  0  0
   34.4859  -13.1023   36.9191 C   0  0  0  0  0  0  0  0  0  0  0  0
   33.6317  -14.0639   36.4223 C   0  0  0  0  0  0  0  0  0  0  0  0
   34.1152  -15.3171   36.0427 C   0  0  0  0  0  0  0  0  0  0  0  0
   35.4449  -15.6430   36.1460 C   0  0  0  0  0  0  0  0  0  0  0  0
   36.2935  -14.6764   36.6437 C   0  0  0  0  0  0  0  0  0  0  0  0
   35.8183  -13.4249   37.0239 C   0  0  0  0  0  0  0  0  0  0  0  0
   34.1064  -19.8398   36.6201 C   0  0  0  0  0  0  0  0  0  0  0  0
   33.3493  -20.5576   35.5420 C   0  0  0  0  0  0  0  0  0  0  0  0
   33.3544  -19.7171   34.2970 C   0  0  0  0  0  0  0  0  0  0  0  0
   32.5836  -18.4418   34.4055 C   0  0  0  0  0  0  0  0  0  0  0  0
   31.5736  -18.4781   35.4487 N   0  0  0  0  0  0  0  0  0  0  0  0
   30.9652  -19.8146   35.3607 C   0  0  0  0  0  0  0  0  0  0  0  0
   31.9300  -20.7612   36.0607 C   0  0  0  0  0  0  0  0  0  0  0  0
   30.8852  -17.7362   35.2864 H   0  0  0  0  0  0  0  0  0  0  0  0
  6  7  2  0  0  0
  7  8  1  0  0  0
  8  9  2  0  0  0
  9  3  1  0  0  0
  3  4  1  0  0  0
  4  5  1  0  0  0
  5  1  1  0  0  0
  1 12  1  0  0  0
 12 13  1  0  0  0
 13 14  1  0  0  0
 14 15  1  0  0  0
 15 16  1  0  0  0
 16 17  1  0  0  0
 17 18  1  0  0  0
  9 10  1  0  0  0
 10 11  2  0  0  0
 11  6  1  0  0  0
  5  3  1  0  0  0
 18 13  1  0  0  0
  1  2  1  0  0  0
 16 19  1  0  0  0
M  END
> <minimizedAffinity>
-6.12659

> <CNNscore>
0.6894981861

> <CNNaffinity>
4.2864136696

> <CNN_VS>
2.9554743767

> <CNNaffinity_variance>
0.6318829060

$$$$
[H]c1c([H])c([H])c([C@@]2([H])C([H])([H])[C@]2([H])N([H])C([H])([H])C2([H])C([H])([H])C([H])([H])N([H])C([H])([H])C2([H])[H])c([H])c1[H]


 19 21  0  0  0  0  0  0  0  0999 V2000
   36.1718  -16.8581   35.3024 N   0  0  0  0  0  0  0  0  0  0  0  0
   36.9526  -16.7660   34.6332 H   0  0  0  0  0  0  0  0  0  0  0  0
   34.7974  -19.0032   35.4558 C   0  0  0  0  0  0  0  0  0  0  0  0
   35.6018  -18.9680   34.1526 C   0  0  0  0  0  0  0  0  0  0  0  0
   35.0856  -17.6922   34.8265 C   0  0  0  0  0  0  0  0  0  0  0  0
   30.7109  -20.3540   35.3325 C   0  0  0  0  0  0  0  0  0  0  0  0
   31.6087  -20.8483   36.2549 C   0  0  0  0  0  0  0  0  0  0  0  0
   32.9289  -20.3952   36.2759 C   0  0  0  0  0  0  0  0  0  0  0  0
   33.3852  -19.4500   35.3909 C   0  0  0  0  0  0  0  0  0  0  0  0
   32.4818  -18.9600   34.4711 C   0  0  0  0  0  0  0  0  0  0  0  0
   31.1642  -19.4074   34.4445 C   0  0  0  0  0  0  0  0  0  0  0  0
   35.5869  -15.5873   35.6772 C   0  0  0  0  0  0  0  0  0  0  0  0
   35.6399  -15.3149   37.1516 C   0  0  0  0  0  0  0  0  0  0  0  0
   35.0145  -13.9770   37.4255 C   0  0  0  0  0  0  0  0  0  0  0  0
   35.7743  -12.8126   36.8786 C   0  0  0  0  0  0  0  0  0  0  0  0
   37.1790  -13.1077   36.6560 N   0  0  0  0  0  0  0  0  0  0  0  0
   37.6014  -13.9077   37.8160 C   0  0  0  0  0  0  0  0  0  0  0  0
   37.1120  -15.3241   37.5489 C   0  0  0  0  0  0  0  0  0  0  0  0
   37.7072  -12.2321   36.5862 H   0  0  0  0  0  0  0  0  0  0  0  0
  6  7  2  0  0  0
  7  8  1  0  0  0
  8  9  2  0  0  0
  9  3  1  0  0  0
  3  4  1  0  0  0
  4  5  1  0  0  0
  5  1  1  0  0  0
  1 12  1  0  0  0
 12 13  1  0  0  0
 13 14  1  0  0  0
 14 15  1  0  0  0
 15 16  1  0  0  0
 16 17  1  0  0  0
 17 18  1  0  0  0
  9 10  1  0  0  0
 10 11  2  0  0  0
 11  6  1  0  0  0
  5  3  1  0  0  0
 18 13  1  0  0  0
  1  2  1  0  0  0
 16 19  1  0  0  0
M  END
> <minimizedAffinity>
-5.63167

> <CNNscore>
0.6582321525

> <CNNaffinity>
4.4494667053

> <CNN_VS>
2.9287819862

> <CNNaffinity_variance>
0.4915688038

$$$$
[H]OC([H])([H])C(F)(F)C([H])([H])N1[C@]([H])(c2c(F)c([H])nc(OC([H])([H])C([H])([H])N([H])C([H])([H])C([H])([H])C([H])([H])F)c2F)c2c(c3c([H])c([H])c([H])c([H])c3n2[H])C([H])([H])[C@@]1([H])C([H])([H])[H]


 39 42  0  0  0  0  0  0  0  0999 V2000
   33.2926  -17.3986   33.7428 C   0  0  0  0  0  0  0  0  0  0  0  0
   33.3471  -18.2647   34.9725 C   0  0  0  0  0  0  0  0  0  0  0  0
   33.2330  -17.2161   36.1177 C   0  0  0  0  0  0  0  0  0  0  0  0
   34.5143  -16.4871   36.0903 C   0  0  0  0  0  0  0  0  0  0  0  0
   35.6613  -17.1200   35.6852 C   0  0  0  0  0  0  0  0  0  0  0  0
   36.6416  -16.1939   35.7702 N   0  0  0  0  0  0  0  0  0  0  0  0
   36.1751  -15.0183   36.2052 C   0  0  0  0  0  0  0  0  0  0  0  0
   36.7421  -13.7835   36.4604 C   0  0  0  0  0  0  0  0  0  0  0  0
   35.9708  -12.7382   36.9154 C   0  0  0  0  0  0  0  0  0  0  0  0
   34.5976  -12.8944   37.1317 C   0  0  0  0  0  0  0  0  0  0  0  0
   34.0614  -14.1345   36.8689 C   0  0  0  0  0  0  0  0  0  0  0  0
   34.8211  -15.1857   36.4145 C   0  0  0  0  0  0  0  0  0  0  0  0
   35.7203  -18.5474   35.2555 C   0  0  0  0  0  0  0  0  0  0  0  0
   34.4183  -19.1257   35.1396 N   0  0  0  0  0  0  0  0  0  0  0  0
   37.6407  -16.3610   35.5299 H   0  0  0  0  0  0  0  0  0  0  0  0
   36.7626  -19.3008   35.9333 C   0  0  0  0  0  0  0  0  0  0  0  0
   36.7042  -19.6196   37.2729 C   0  0  0  0  0  0  0  0  0  0  0  0
   35.6532  -19.2193   37.9770 F   0  0  0  0  0  0  0  0  0  0  0  0
   37.7002  -20.3406   37.9074 C   0  0  0  0  0  0  0  0  0  0  0  0
   38.7671  -20.7482   37.1977 N   0  0  0  0  0  0  0  0  0  0  0  0
   38.9039  -20.4808   35.8887 C   0  0  0  0  0  0  0  0  0  0  0  0
   37.8974  -19.7581   35.2697 C   0  0  0  0  0  0  0  0  0  0  0  0
   38.0728  -19.5068   33.9456 F   0  0  0  0  0  0  0  0  0  0  0  0
   40.0107  -20.9213   35.2166 O   0  0  0  0  0  0  0  0  0  0  0  0
   41.2050  -20.2393   34.9949 C   0  0  0  0  0  0  0  0  0  0  0  0
   41.4091  -19.7388   33.6073 C   0  0  0  0  0  0  0  0  0  0  0  0
   41.9637  -18.3965   33.5739 N   0  0  0  0  0  0  0  0  0  0  0  0
   42.1471  -18.0403   32.6286 H   0  0  0  0  0  0  0  0  0  0  0  0
   43.0677  -18.2189   34.4714 C   0  0  0  0  0  0  0  0  0  0  0  0
   42.9995  -16.9161   35.2284 C   0  0  0  0  0  0  0  0  0  0  0  0
   43.6220  -16.9823   36.5919 C   0  0  0  0  0  0  0  0  0  0  0  0
   43.6917  -15.7622   37.2260 F   0  0  0  0  0  0  0  0  0  0  0  0
   34.3490  -20.4969   35.1843 C   0  0  0  0  0  0  0  0  0  0  0  0
   33.3214  -21.3277   35.7872 C   0  0  0  0  0  0  0  0  0  0  0  0
   33.8004  -22.4314   36.4922 F   0  0  0  0  0  0  0  0  0  0  0  0
   32.7470  -20.5881   36.9157 F   0  0  0  0  0  0  0  0  0  0  0  0
   32.1011  -21.7397   35.0536 C   0  0  0  0  0  0  0  0  0  0  0  0
   32.2103  -22.3708   33.8613 O   0  0  0  0  0  0  0  0  0  0  0  0
   32.2418  -23.3519   33.9487 H   0  0  0  0  0  0  0  0  0  0  0  0
  1  2  1  0  0  0
  2  3  1  0  0  0
  3  4  1  0  0  0
  4  5  2  0  0  0
  5  6  1  0  0  0
  6  7  1  0  0  0
  7  8  2  0  0  0
  8  9  1  0  0  0
  9 10  2  0  0  0
 10 11  1  0  0  0
 11 12  2  0  0  0
  5 13  1  0  0  0
 13 16  1  0  0  0
 16 17  2  0  0  0
 17 18  1  0  0  0
 17 19  1  0  0  0
 19 20  2  0  0  0
 20 21  1  0  0  0
 21 24  1  0  0  0
 24 25  1  0  0  0
 25 26  1  0  0  0
 26 27  1  0  0  0
 27 29  1  0  0  0
 29 30  1  0  0  0
 30 31  1  0  0  0
 31 32  1  0  0  0
 21 22  2  0  0  0
 22 23  1  0  0  0
 13 14  1  0  0  0
 14 33  1  0  0  0
 33 34  1  0  0  0
 34 35  1  0  0  0
 34 36  1  0  0  0
 34 37  1  0  0  0
 37 38  1  0  0  0
 14  2  1  0  0  0
 12  4  1  0  0  0
 22 16  1  0  0  0
 12  7  1  0  0  0
  6 15  1  0  0  0
 27 28  1  0  0  0
 38 39  1  0  0  0
M  END
> <minimizedAffinity>
-6.34166

> <CNNscore>
0.4837906063

> <CNNaffinity>
6.5659875870

> <CNN_VS>
3.1765630245

> <CNNaffinity_variance>
0.0988308936

$$$$
[H]OC([H])([H])C(F)(F)C([H])([H])N1[C@]([H])(c2c(F)c([H])nc(OC([H])([H])C([H])([H])N([H])C([H])([H])C([H])([H])C([H])([H])F)c2F)c2c(c3c([H])c([H])c([H])c([H])c3n2[H])C([H])([H])[C@@]1([H])C([H])([H])[H]


 39 42  0  0  0  0  0  0  0  0999 V2000
   33.5851  -17.5879   33.7380 C   0  0  0  0  0  0  0  0  0  0  0  0
   33.3972  -18.3747   35.0072 C   0  0  0  0  0  0  0  0  0  0  0  0
   33.2544  -17.2488   36.0731 C   0  0  0  0  0  0  0  0  0  0  0  0
   34.5988  -16.6518   36.1732 C   0  0  0  0  0  0  0  0  0  0  0  0
   35.7139  -17.4184   35.9517 C   0  0  0  0  0  0  0  0  0  0  0  0
   36.7682  -16.5890   36.1144 N   0  0  0  0  0  0  0  0  0  0  0  0
   36.3779  -15.3480   36.4251 C   0  0  0  0  0  0  0  0  0  0  0  0
   37.0359  -14.1607   36.6875 C   0  0  0  0  0  0  0  0  0  0  0  0
   36.3287  -13.0182   36.9856 C   0  0  0  0  0  0  0  0  0  0  0  0
   34.9306  -13.0252   37.0315 C   0  0  0  0  0  0  0  0  0  0  0  0
   34.3034  -14.2213   36.7659 C   0  0  0  0  0  0  0  0  0  0  0  0
   34.9985  -15.3686   36.4672 C   0  0  0  0  0  0  0  0  0  0  0  0
   35.6750  -18.8693   35.6067 C   0  0  0  0  0  0  0  0  0  0  0  0
   34.3435  -19.3238   35.3543 N   0  0  0  0  0  0  0  0  0  0  0  0
   37.7661  -16.8680   36.0132 H   0  0  0  0  0  0  0  0  0  0  0  0
   36.5414  -19.6760   36.4504 C   0  0  0  0  0  0  0  0  0  0  0  0
   36.3475  -19.8121   37.8081 C   0  0  0  0  0  0  0  0  0  0  0  0
   35.3280  -19.1771   38.3721 F   0  0  0  0  0  0  0  0  0  0  0  0
   37.1762  -20.5858   38.6014 C   0  0  0  0  0  0  0  0  0  0  0  0
   38.2105  -21.2309   38.0341 N   0  0  0  0  0  0  0  0  0  0  0  0
   38.4718  -21.1529   36.7191 C   0  0  0  0  0  0  0  0  0  0  0  0
   37.6320  -20.3741   35.9400 C   0  0  0  0  0  0  0  0  0  0  0  0
   37.9297  -20.3195   34.6151 F   0  0  0  0  0  0  0  0  0  0  0  0
   39.5380  -21.8315   36.1960 O   0  0  0  0  0  0  0  0  0  0  0  0
   40.8090  -21.3385   35.9095 C   0  0  0  0  0  0  0  0  0  0  0  0
   41.4816  -21.9478   34.7288 C   0  0  0  0  0  0  0  0  0  0  0  0
   42.0863  -20.9554   33.8570 N   0  0  0  0  0  0  0  0  0  0  0  0
   42.8320  -20.4054   34.2990 H   0  0  0  0  0  0  0  0  0  0  0  0
   41.1232  -20.1512   33.1631 C   0  0  0  0  0  0  0  0  0  0  0  0
   41.3129  -18.6748   33.4070 C   0  0  0  0  0  0  0  0  0  0  0  0
   42.5124  -18.3563   34.2501 C   0  0  0  0  0  0  0  0  0  0  0  0
   42.4515  -17.1186   34.8503 F   0  0  0  0  0  0  0  0  0  0  0  0
   34.1257  -20.6760   35.4599 C   0  0  0  0  0  0  0  0  0  0  0  0
   32.8599  -21.3882   35.4470 C   0  0  0  0  0  0  0  0  0  0  0  0
   31.7737  -20.6594   35.9306 F   0  0  0  0  0  0  0  0  0  0  0  0
   32.4266  -21.5141   34.0518 F   0  0  0  0  0  0  0  0  0  0  0  0
   32.7296  -22.7859   35.9231 C   0  0  0  0  0  0  0  0  0  0  0  0
   33.8299  -23.5656   36.0384 O   0  0  0  0  0  0  0  0  0  0  0  0
   34.2427  -23.5157   36.9319 H   0  0  0  0  0  0  0  0  0  0  0  0
  1  2  1  0  0  0
  2  3  1  0  0  0
  3  4  1  0  0  0
  4  5  2  0  0  0
  5  6  1  0  0  0
  6  7  1  0  0  0
  7  8  2  0  0  0
  8  9  1  0  0  0
  9 10  2  0  0  0
 10 11  1  0  0  0
 11 12  2  0  0  0
  5 13  1  0  0  0
 13 16  1  0  0  0
 16 17  2  0  0  0
 17 18  1  0  0  0
 17 19  1  0  0  0
 19 20  2  0  0  0
 20 21  1  0  0  0
 21 24  1  0  0  0
 24 25  1  0  0  0
 25 26  1  0  0  0
 26 27  1  0  0  0
 27 29  1  0  0  0
 29 30  1  0  0  0
 30 31  1  0  0  0
 31 32  1  0  0  0
 21 22  2  0  0  0
 22 23  1  0  0  0
 13 14  1  0  0  0
 14 33  1  0  0  0
 33 34  1  0  0  0
 34 35  1  0  0  0
 34 36  1  0  0  0
 34 37  1  0  0  0
 37 38  1  0  0  0
 14  2  1  0  0  0
 12  4  1  0  0  0
 22 16  1  0  0  0
 12  7  1  0  0  0
  6 15  1  0  0  0
 27 28  1  0  0  0
 38 39  1  0  0  0
M  END
> <minimizedAffinity>
-6.19786

> <CNNscore>
0.4148368239

> <CNNaffinity>
6.4210500717

> <CNN_VS>
2.6636879444

> <CNNaffinity_variance>
0.0150489584

$$$$
[H]OC([H])([H])C(F)(F)C([H])([H])N1[C@]([H])(c2c(F)c([H])nc(OC([H])([H])C([H])([H])N([H])C([H])([H])C([H])([H])C([H])([H])F)c2F)c2c(c3c([H])c([H])c([H])c([H])c3n2[H])C([H])([H])[C@@]1([H])C([H])([H])[H]


 39 42  0  0  0  0  0  0  0  0999 V2000
   33.4951  -17.7192   33.7546 C   0  0  0  0  0  0  0  0  0  0  0  0
   33.3398  -18.5090   35.0263 C   0  0  0  0  0  0  0  0  0  0  0  0
   33.1930  -17.3857   36.0944 C   0  0  0  0  0  0  0  0  0  0  0  0
   34.5280  -16.7652   36.1748 C   0  0  0  0  0  0  0  0  0  0  0  0
   35.6530  -17.5121   35.9368 C   0  0  0  0  0  0  0  0  0  0  0  0
   36.6949  -16.6643   36.0841 N   0  0  0  0  0  0  0  0  0  0  0  0
   36.2875  -15.4303   36.4007 C   0  0  0  0  0  0  0  0  0  0  0  0
   36.9284  -14.2317   36.6536 C   0  0  0  0  0  0  0  0  0  0  0  0
   36.2057  -13.1016   36.9622 C   0  0  0  0  0  0  0  0  0  0  0  0
   34.8087  -13.1332   37.0287 C   0  0  0  0  0  0  0  0  0  0  0  0
   34.1988  -14.3401   36.7721 C   0  0  0  0  0  0  0  0  0  0  0  0
   34.9094  -15.4751   36.4630 C   0  0  0  0  0  0  0  0  0  0  0  0
   35.6344  -18.9635   35.5922 C   0  0  0  0  0  0  0  0  0  0  0  0
   34.3076  -19.4413   35.3593 N   0  0  0  0  0  0  0  0  0  0  0  0
   37.6959  -16.9257   35.9682 H   0  0  0  0  0  0  0  0  0  0  0  0
   36.5272  -19.7548   36.4229 C   0  0  0  0  0  0  0  0  0  0  0  0
   37.6798  -20.3358   35.9395 C   0  0  0  0  0  0  0  0  0  0  0  0
   37.9876  -20.1698   34.6595 F   0  0  0  0  0  0  0  0  0  0  0  0
   38.5247  -21.0841   36.7399 C   0  0  0  0  0  0  0  0  0  0  0  0
   38.2166  -21.2550   38.0375 N   0  0  0  0  0  0  0  0  0  0  0  0
   37.1136  -20.7242   38.5900 C   0  0  0  0  0  0  0  0  0  0  0  0
   36.2791  -19.9781   37.7741 C   0  0  0  0  0  0  0  0  0  0  0  0
   35.1732  -19.4587   38.3693 F   0  0  0  0  0  0  0  0  0  0  0  0
   36.8505  -20.9303   39.9163 O   0  0  0  0  0  0  0  0  0  0  0  0
   37.4075  -21.8884   40.7604 C   0  0  0  0  0  0  0  0  0  0  0  0
   38.5225  -21.4108   41.6242 C   0  0  0  0  0  0  0  0  0  0  0  0
   39.7976  -21.3881   40.9282 N   0  0  0  0  0  0  0  0  0  0  0  0
   40.3245  -22.2672   40.9864 H   0  0  0  0  0  0  0  0  0  0  0  0
   40.5877  -20.2315   41.2345 C   0  0  0  0  0  0  0  0  0  0  0  0
   42.0600  -20.4505   40.9906 C   0  0  0  0  0  0  0  0  0  0  0  0
   42.8735  -19.1921   41.0669 C   0  0  0  0  0  0  0  0  0  0  0  0
   42.5802  -18.2850   40.0735 F   0  0  0  0  0  0  0  0  0  0  0  0
   34.1151  -20.7971   35.4679 C   0  0  0  0  0  0  0  0  0  0  0  0
   32.9124  -21.5070   35.8667 C   0  0  0  0  0  0  0  0  0  0  0  0
   31.8183  -21.3254   35.0212 F   0  0  0  0  0  0  0  0  0  0  0  0
   33.1312  -22.9370   35.6264 F   0  0  0  0  0  0  0  0  0  0  0  0
   32.4214  -21.5154   37.2653 C   0  0  0  0  0  0  0  0  0  0  0  0
   31.1203  -21.7846   37.5230 O   0  0  0  0  0  0  0  0  0  0  0  0
   30.9501  -22.7436   37.6732 H   0  0  0  0  0  0  0  0  0  0  0  0
  1  2  1  0  0  0
  2  3  1  0  0  0
  3  4  1  0  0  0
  4  5  2  0  0  0
  5  6  1  0  0  0
  6  7  1  0  0  0
  7  8  2  0  0  0
  8  9  1  0  0  0
  9 10  2  0  0  0
 10 11  1  0  0  0
 11 12  2  0  0  0
  5 13  1  0  0  0
 13 16  1  0  0  0
 16 17  2  0  0  0
 17 18  1  0  0  0
 17 19  1  0  0  0
 19 20  2  0  0  0
 20 21  1  0  0  0
 21 24  1  0  0  0
 24 25  1  0  0  0
 25 26  1  0  0  0
 26 27  1  0  0  0
 27 29  1  0  0  0
 29 30  1  0  0  0
 30 31  1  0  0  0
 31 32  1  0  0  0
 21 22  2  0  0  0
 22 23  1  0  0  0
 13 14  1  0  0  0
 14 33  1  0  0  0
 33 34  1  0  0  0
 34 35  1  0  0  0
 34 36  1  0  0  0
 34 37  1  0  0  0
 37 38  1  0  0  0
 14  2  1  0  0  0
 12  4  1  0  0  0
 22 16  1  0  0  0
 12  7  1  0  0  0
  6 15  1  0  0  0
 27 28  1  0  0  0
 38 39  1  0  0  0
M  END
> <minimizedAffinity>
-5.48053

> <CNNscore>
0.3892005682

> <CNNaffinity>
6.2770156860

> <CNN_VS>
2.4430179596

> <CNNaffinity_variance>
0.0402183086

$$$$
[H]OC([H])([H])C(F)(F)C([H])([H])N1[C@]([H])(c2c(F)c([H])nc(OC([H])([H])C([H])([H])N([H])C([H])([H])C([H])([H])C([H])([H])F)c2F)c2c(c3c([H])c([H])c([H])c([H])c3n2[H])C([H])([H])[C@@]1([H])C([H])([H])[H]


 39 42  0  0  0  0  0  0  0  0999 V2000
   33.4041  -17.2908   33.6896 C   0  0  0  0  0  0  0  0  0  0  0  0
   33.3422  -18.1838   34.8997 C   0  0  0  0  0  0  0  0  0  0  0  0
   33.2571  -17.1533   36.0638 C   0  0  0  0  0  0  0  0  0  0  0  0
   34.5886  -16.5216   36.1061 C   0  0  0  0  0  0  0  0  0  0  0  0
   35.7020  -17.2298   35.7335 C   0  0  0  0  0  0  0  0  0  0  0  0
   36.7434  -16.3814   35.8804 N   0  0  0  0  0  0  0  0  0  0  0  0
   36.3466  -15.1834   36.3237 C   0  0  0  0  0  0  0  0  0  0  0  0
   36.9918  -13.9999   36.6310 C   0  0  0  0  0  0  0  0  0  0  0  0
   36.2809  -12.9096   37.0787 C   0  0  0  0  0  0  0  0  0  0  0  0
   34.8920  -12.9673   37.2349 C   0  0  0  0  0  0  0  0  0  0  0  0
   34.2775  -14.1583   36.9211 C   0  0  0  0  0  0  0  0  0  0  0  0
   34.9764  -15.2537   36.4734 C   0  0  0  0  0  0  0  0  0  0  0  0
   35.6739  -18.6485   35.2728 C   0  0  0  0  0  0  0  0  0  0  0  0
   34.3389  -19.1255   35.0900 N   0  0  0  0  0  0  0  0  0  0  0  0
   37.7367  -16.6176   35.6773 H   0  0  0  0  0  0  0  0  0  0  0  0
   36.6281  -19.4913   35.9746 C   0  0  0  0  0  0  0  0  0  0  0  0
   37.7020  -20.0868   35.3486 C   0  0  0  0  0  0  0  0  0  0  0  0
   37.8719  -19.8860   34.0481 F   0  0  0  0  0  0  0  0  0  0  0  0
   38.6066  -20.8843   36.0270 C   0  0  0  0  0  0  0  0  0  0  0  0
   38.4381  -21.0906   37.3450 N   0  0  0  0  0  0  0  0  0  0  0  0
   37.4194  -20.5490   38.0325 C   0  0  0  0  0  0  0  0  0  0  0  0
   36.5235  -19.7533   37.3375 C   0  0  0  0  0  0  0  0  0  0  0  0
   35.5063  -19.2246   38.0675 F   0  0  0  0  0  0  0  0  0  0  0  0
   37.2978  -20.7925   39.3729 O   0  0  0  0  0  0  0  0  0  0  0  0
   36.9202  -21.9799   39.9961 C   0  0  0  0  0  0  0  0  0  0  0  0
   35.4536  -22.2279   40.0672 C   0  0  0  0  0  0  0  0  0  0  0  0
   34.9783  -23.0786   38.9897 N   0  0  0  0  0  0  0  0  0  0  0  0
   34.0775  -23.5333   39.1786 H   0  0  0  0  0  0  0  0  0  0  0  0
   35.9784  -23.9821   38.5004 C   0  0  0  0  0  0  0  0  0  0  0  0
   36.1142  -23.9429   36.9987 C   0  0  0  0  0  0  0  0  0  0  0  0
   37.3974  -24.5375   36.4976 C   0  0  0  0  0  0  0  0  0  0  0  0
   38.4846  -24.2525   37.2929 F   0  0  0  0  0  0  0  0  0  0  0  0
   34.1670  -20.4884   35.0994 C   0  0  0  0  0  0  0  0  0  0  0  0
   32.9957  -21.2457   35.5045 C   0  0  0  0  0  0  0  0  0  0  0  0
   33.2624  -22.3409   36.3255 F   0  0  0  0  0  0  0  0  0  0  0  0
   32.2452  -20.4353   36.4691 F   0  0  0  0  0  0  0  0  0  0  0  0
   31.9288  -21.6303   34.5500 C   0  0  0  0  0  0  0  0  0  0  0  0
   32.0750  -22.7358   33.7829 O   0  0  0  0  0  0  0  0  0  0  0  0
   31.7066  -23.5464   34.2052 H   0  0  0  0  0  0  0  0  0  0  0  0
  1  2  1  0  0  0
  2  3  1  0  0  0
  3  4  1  0  0  0
  4  5  2  0  0  0
  5  6  1  0  0  0
  6  7  1  0  0  0
  7  8  2  0  0  0
  8  9  1  0  0  0
  9 10  2  0  0  0
 10 11  1  0  0  0
 11 12  2  0  0  0
  5 13  1  0  0  0
 13 16  1  0  0  0
 16 17  2  0  0  0
 17 18  1  0  0  0
 17 19  1  0  0  0
 19 20  2  0  0  0
 20 21  1  0  0  0
 21 24  1  0  0  0
 24 25  1  0  0  0
 25 26  1  0  0  0
 26 27  1  0  0  0
 27 29  1  0  0  0
 29 30  1  0  0  0
 30 31  1  0  0  0
 31 32  1  0  0  0
 21 22  2  0  0  0
 22 23  1  0  0  0
 13 14  1  0  0  0
 14 33  1  0  0  0
 33 34  1  0  0  0
 34 35  1  0  0  0
 34 36  1  0  0  0
 34 37  1  0  0  0
 37 38  1  0  0  0
 14  2  1  0  0  0
 12  4  1  0  0  0
 22 16  1  0  0  0
 12  7  1  0  0  0
  6 15  1  0  0  0
 27 28  1  0  0  0
 38 39  1  0  0  0
M  END
> <minimizedAffinity>
-5.20011

> <CNNscore>
0.3865038157

> <CNNaffinity>
6.2575182915

> <CNN_VS>
2.4185547829

> <CNNaffinity_variance>
0.0510257296

$$$$
[H]OC([H])([H])C(F)(F)C([H])([H])N1[C@]([H])(c2c(F)c([H])nc(OC([H])([H])C([H])([H])N([H])C([H])([H])C([H])([H])C([H])([H])F)c2F)c2c(c3c([H])c([H])c([H])c([H])c3n2[H])C([H])([H])[C@@]1([H])C([H])([H])[H]


 39 42  0  0  0  0  0  0  0  0999 V2000
   33.2490  -17.3748   33.8357 C   0  0  0  0  0  0  0  0  0  0  0  0
   33.2939  -18.2429   35.0643 C   0  0  0  0  0  0  0  0  0  0  0  0
   33.2503  -17.1909   36.2112 C   0  0  0  0  0  0  0  0  0  0  0  0
   34.5605  -16.5172   36.1548 C   0  0  0  0  0  0  0  0  0  0  0  0
   35.6701  -17.1982   35.7246 C   0  0  0  0  0  0  0  0  0  0  0  0
   36.6907  -16.3149   35.7872 N   0  0  0  0  0  0  0  0  0  0  0  0
   36.2846  -15.1205   36.2318 C   0  0  0  0  0  0  0  0  0  0  0  0
   36.9093  -13.9112   36.4737 C   0  0  0  0  0  0  0  0  0  0  0  0
   36.1936  -12.8342   36.9452 C   0  0  0  0  0  0  0  0  0  0  0  0
   34.8202  -12.9317   37.1923 C   0  0  0  0  0  0  0  0  0  0  0  0
   34.2259  -14.1478   36.9422 C   0  0  0  0  0  0  0  0  0  0  0  0
   34.9297  -15.2302   36.4715 C   0  0  0  0  0  0  0  0  0  0  0  0
   35.6587  -18.6267   35.2944 C   0  0  0  0  0  0  0  0  0  0  0  0
   34.3309  -19.1489   35.2079 N   0  0  0  0  0  0  0  0  0  0  0  0
   37.6761  -16.5243   35.5247 H   0  0  0  0  0  0  0  0  0  0  0  0
   36.6827  -19.4241   35.9491 C   0  0  0  0  0  0  0  0  0  0  0  0
   36.6872  -19.6680   37.3057 C   0  0  0  0  0  0  0  0  0  0  0  0
   35.7173  -19.1504   38.0485 F   0  0  0  0  0  0  0  0  0  0  0  0
   37.6650  -20.4318   37.9183 C   0  0  0  0  0  0  0  0  0  0  0  0
   38.6498  -20.9583   37.1694 N   0  0  0  0  0  0  0  0  0  0  0  0
   38.7214  -20.7702   35.8415 C   0  0  0  0  0  0  0  0  0  0  0  0
   37.7344  -20.0030   35.2449 C   0  0  0  0  0  0  0  0  0  0  0  0
   37.8422  -19.8349   33.9005 F   0  0  0  0  0  0  0  0  0  0  0  0
   39.7460  -21.3306   35.1294 O   0  0  0  0  0  0  0  0  0  0  0  0
   40.7600  -22.1623   35.5993 C   0  0  0  0  0  0  0  0  0  0  0  0
   42.1449  -21.6402   35.4345 C   0  0  0  0  0  0  0  0  0  0  0  0
   42.2786  -20.7664   34.2815 N   0  0  0  0  0  0  0  0  0  0  0  0
   42.9771  -21.0774   33.5965 H   0  0  0  0  0  0  0  0  0  0  0  0
   42.4060  -19.3823   34.6336 C   0  0  0  0  0  0  0  0  0  0  0  0
   42.9538  -19.1830   36.0247 C   0  0  0  0  0  0  0  0  0  0  0  0
   42.0136  -18.4556   36.9402 C   0  0  0  0  0  0  0  0  0  0  0  0
   40.7334  -18.3495   36.4447 F   0  0  0  0  0  0  0  0  0  0  0  0
   34.2042  -20.5159   35.2549 C   0  0  0  0  0  0  0  0  0  0  0  0
   33.0686  -21.3002   35.7073 C   0  0  0  0  0  0  0  0  0  0  0  0
   32.0697  -21.4881   34.7524 F   0  0  0  0  0  0  0  0  0  0  0  0
   33.5047  -22.6945   35.8353 F   0  0  0  0  0  0  0  0  0  0  0  0
   32.4186  -21.0735   37.0201 C   0  0  0  0  0  0  0  0  0  0  0  0
   33.1764  -20.8768   38.1241 O   0  0  0  0  0  0  0  0  0  0  0  0
   33.3749  -19.9255   38.2879 H   0  0  0  0  0  0  0  0  0  0  0  0
  1  2  1  0  0  0
  2  3  1  0  0  0
  3  4  1  0  0  0
  4  5  2  0  0  0
  5  6  1  0  0  0
  6  7  1  0  0  0
  7  8  2  0  0  0
  8  9  1  0  0  0
  9 10  2  0  0  0
 10 11  1  0  0  0
 11 12  2  0  0  0
  5 13  1  0  0  0
 13 16  1  0  0  0
 16 17  2  0  0  0
 17 18  1  0  0  0
 17 19  1  0  0  0
 19 20  2  0  0  0
 20 21  1  0  0  0
 21 24  1  0  0  0
 24 25  1  0  0  0
 25 26  1  0  0  0
 26 27  1  0  0  0
 27 29  1  0  0  0
 29 30  1  0  0  0
 30 31  1  0  0  0
 31 32  1  0  0  0
 21 22  2  0  0  0
 22 23  1  0  0  0
 13 14  1  0  0  0
 14 33  1  0  0  0
 33 34  1  0  0  0
 34 35  1  0  0  0
 34 36  1  0  0  0
 34 37  1  0  0  0
 37 38  1  0  0  0
 14  2  1  0  0  0
 12  4  1  0  0  0
 22 16  1  0  0  0
 12  7  1  0  0  0
  6 15  1  0  0  0
 27 28  1  0  0  0
 38 39  1  0  0  0
M  END
> <minimizedAffinity>
-5.67585

> <CNNscore>
0.3766833246

> <CNNaffinity>
6.2572150230

> <CNN_VS>
2.3569886684

> <CNNaffinity_variance>
0.0570739135

$$$$
[H]OC([H])([H])C(F)(F)C([H])([H])N1[C@]([H])(c2c(F)c([H])nc(OC([H])([H])C([H])([H])N([H])C([H])([H])C([H])([H])C([H])([H])F)c2F)c2c(c3c([H])c([H])c([H])c([H])c3n2[H])C([H])([H])[C@@]1([H])C([H])([H])[H]


 39 42  0  0  0  0  0  0  0  0999 V2000
   33.3473  -17.3537   33.7015 C   0  0  0  0  0  0  0  0  0  0  0  0
   33.3073  -18.2352   34.9207 C   0  0  0  0  0  0  0  0  0  0  0  0
   33.2246  -17.1943   36.0757 C   0  0  0  0  0  0  0  0  0  0  0  0
   34.5502  -16.5492   36.0974 C   0  0  0  0  0  0  0  0  0  0  0  0
   35.6665  -17.2501   35.7195 C   0  0  0  0  0  0  0  0  0  0  0  0
   36.7010  -16.3902   35.8468 N   0  0  0  0  0  0  0  0  0  0  0  0
   36.2972  -15.1918   36.2828 C   0  0  0  0  0  0  0  0  0  0  0  0
   36.9338  -13.9991   36.5716 C   0  0  0  0  0  0  0  0  0  0  0  0
   36.2171  -12.9115   37.0165 C   0  0  0  0  0  0  0  0  0  0  0  0
   34.8305  -12.9812   37.1884 C   0  0  0  0  0  0  0  0  0  0  0  0
   34.2246  -14.1812   36.8928 C   0  0  0  0  0  0  0  0  0  0  0  0
   34.9293  -15.2741   36.4481 C   0  0  0  0  0  0  0  0  0  0  0  0
   35.6475  -18.6734   35.2729 C   0  0  0  0  0  0  0  0  0  0  0  0
   34.3154  -19.1653   35.1093 N   0  0  0  0  0  0  0  0  0  0  0  0
   37.6943  -16.6186   35.6351 H   0  0  0  0  0  0  0  0  0  0  0  0
   36.6175  -19.5000   35.9724 C   0  0  0  0  0  0  0  0  0  0  0  0
   37.6982  -20.0795   35.3432 C   0  0  0  0  0  0  0  0  0  0  0  0
   37.8600  -19.8782   34.0417 F   0  0  0  0  0  0  0  0  0  0  0  0
   38.6179  -20.8615   36.0194 C   0  0  0  0  0  0  0  0  0  0  0  0
   38.4577  -21.0683   37.3383 N   0  0  0  0  0  0  0  0  0  0  0  0
   37.4333  -20.5416   38.0289 C   0  0  0  0  0  0  0  0  0  0  0  0
   36.5222  -19.7613   37.3361 C   0  0  0  0  0  0  0  0  0  0  0  0
   35.4996  -19.2475   38.0691 F   0  0  0  0  0  0  0  0  0  0  0  0
   37.3206  -20.7849   39.3701 O   0  0  0  0  0  0  0  0  0  0  0  0
   38.0408  -21.6974   40.1378 C   0  0  0  0  0  0  0  0  0  0  0  0
   37.2410  -22.7994   40.7409 C   0  0  0  0  0  0  0  0  0  0  0  0
   36.9031  -22.5475   42.1312 N   0  0  0  0  0  0  0  0  0  0  0  0
   37.1881  -23.2943   42.7755 H   0  0  0  0  0  0  0  0  0  0  0  0
   35.5446  -22.1271   42.3151 C   0  0  0  0  0  0  0  0  0  0  0  0
   35.4246  -20.6495   42.5932 C   0  0  0  0  0  0  0  0  0  0  0  0
   34.6465  -19.9047   41.5488 C   0  0  0  0  0  0  0  0  0  0  0  0
   34.3400  -20.6653   40.4427 F   0  0  0  0  0  0  0  0  0  0  0  0
   34.1570  -20.5296   35.1338 C   0  0  0  0  0  0  0  0  0  0  0  0
   33.3932  -21.3310   36.0739 C   0  0  0  0  0  0  0  0  0  0  0  0
   34.1610  -22.1303   36.9202 F   0  0  0  0  0  0  0  0  0  0  0  0
   32.8323  -20.4290   37.0850 F   0  0  0  0  0  0  0  0  0  0  0  0
   32.1936  -22.1022   35.6695 C   0  0  0  0  0  0  0  0  0  0  0  0
   32.1909  -22.7831   34.4998 O   0  0  0  0  0  0  0  0  0  0  0  0
   32.5040  -23.7125   34.5970 H   0  0  0  0  0  0  0  0  0  0  0  0
  1  2  1  0  0  0
  2  3  1  0  0  0
  3  4  1  0  0  0
  4  5  2  0  0  0
  5  6  1  0  0  0
  6  7  1  0  0  0
  7  8  2  0  0  0
  8  9  1  0  0  0
  9 10  2  0  0  0
 10 11  1  0  0  0
 11 12  2  0  0  0
  5 13  1  0  0  0
 13 16  1  0  0  0
 16 17  2  0  0  0
 17 18  1  0  0  0
 17 19  1  0  0  0
 19 20  2  0  0  0
 20 21  1  0  0  0
 21 24  1  0  0  0
 24 25  1  0  0  0
 25 26  1  0  0  0
 26 27  1  0  0  0
 27 29  1  0  0  0
 29 30  1  0  0  0
 30 31  1  0  0  0
 31 32  1  0  0  0
 21 22  2  0  0  0
 22 23  1  0  0  0
 13 14  1  0  0  0
 14 33  1  0  0  0
 33 34  1  0  0  0
 34 35  1  0  0  0
 34 36  1  0  0  0
 34 37  1  0  0  0
 37 38  1  0  0  0
 14  2  1  0  0  0
 12  4  1  0  0  0
 22 16  1  0  0  0
 12  7  1  0  0  0
  6 15  1  0  0  0
 27 28  1  0  0  0
 38 39  1  0  0  0
M  END
> <minimizedAffinity>
-5.26743

> <CNNscore>
0.3628115058

> <CNNaffinity>
6.1652231216

> <CNN_VS>
2.2368137836

> <CNNaffinity_variance>
0.0523804501

$$$$
[H]OC([H])([H])C(F)(F)C([H])([H])N1[C@]([H])(c2c(F)c([H])nc(OC([H])([H])C([H])([H])N([H])C([H])([H])C([H])([H])C([H])([H])F)c2F)c2c(c3c([H])c([H])c([H])c([H])c3n2[H])C([H])([H])[C@@]1([H])C([H])([H])[H]


 39 42  0  0  0  0  0  0  0  0999 V2000
   34.6971  -17.9060   33.7122 C   0  0  0  0  0  0  0  0  0  0  0  0
   34.1381  -18.5817   34.9354 C   0  0  0  0  0  0  0  0  0  0  0  0
   33.7624  -17.3694   35.8371 C   0  0  0  0  0  0  0  0  0  0  0  0
   35.0547  -16.7972   36.2571 C   0  0  0  0  0  0  0  0  0  0  0  0
   36.1530  -17.6047   36.4049 C   0  0  0  0  0  0  0  0  0  0  0  0
   37.1598  -16.7893   36.7888 N   0  0  0  0  0  0  0  0  0  0  0  0
   36.7555  -15.5183   36.8902 C   0  0  0  0  0  0  0  0  0  0  0  0
   37.3700  -14.3290   37.2355 C   0  0  0  0  0  0  0  0  0  0  0  0
   36.6599  -13.1499   37.2454 C   0  0  0  0  0  0  0  0  0  0  0  0
   35.3026  -13.1210   36.9080 C   0  0  0  0  0  0  0  0  0  0  0  0
   34.7183  -14.3202   36.5686 C   0  0  0  0  0  0  0  0  0  0  0  0
   35.4166  -15.5037   36.5552 C   0  0  0  0  0  0  0  0  0  0  0  0
   36.1445  -19.0777   36.1686 C   0  0  0  0  0  0  0  0  0  0  0  0
   34.9121  -19.5207   35.5956 N   0  0  0  0  0  0  0  0  0  0  0  0
   38.1344  -17.0984   36.9846 H   0  0  0  0  0  0  0  0  0  0  0  0
   36.7137  -19.8323   37.2730 C   0  0  0  0  0  0  0  0  0  0  0  0
   36.0412  -20.0481   38.4566 C   0  0  0  0  0  0  0  0  0  0  0  0
   34.8224  -19.5429   38.5972 F   0  0  0  0  0  0  0  0  0  0  0  0
   36.5910  -20.7713   39.5004 C   0  0  0  0  0  0  0  0  0  0  0  0
   37.8258  -21.2850   39.3622 N   0  0  0  0  0  0  0  0  0  0  0  0
   38.5507  -21.1223   38.2434 C   0  0  0  0  0  0  0  0  0  0  0  0
   37.9848  -20.3957   37.2086 C   0  0  0  0  0  0  0  0  0  0  0  0
   38.7494  -20.2521   36.0943 F   0  0  0  0  0  0  0  0  0  0  0  0
   39.8019  -21.6681   38.1581 O   0  0  0  0  0  0  0  0  0  0  0  0
   40.9916  -21.1668   38.6815 C   0  0  0  0  0  0  0  0  0  0  0  0
   41.2764  -19.7383   38.3718 C   0  0  0  0  0  0  0  0  0  0  0  0
   42.2477  -19.5818   37.3028 N   0  0  0  0  0  0  0  0  0  0  0  0
   43.1775  -19.2831   37.6194 H   0  0  0  0  0  0  0  0  0  0  0  0
   41.7518  -18.8160   36.1967 C   0  0  0  0  0  0  0  0  0  0  0  0
   41.8072  -19.5725   34.8929 C   0  0  0  0  0  0  0  0  0  0  0  0
   41.5138  -18.7206   33.6932 C   0  0  0  0  0  0  0  0  0  0  0  0
   40.2045  -18.3007   33.6220 F   0  0  0  0  0  0  0  0  0  0  0  0
   34.6141  -20.8543   35.7355 C   0  0  0  0  0  0  0  0  0  0  0  0
   33.3530  -21.4592   36.1272 C   0  0  0  0  0  0  0  0  0  0  0  0
   33.4544  -22.4315   37.1217 F   0  0  0  0  0  0  0  0  0  0  0  0
   32.5890  -20.4615   36.8831 F   0  0  0  0  0  0  0  0  0  0  0  0
   32.3472  -21.9117   35.1369 C   0  0  0  0  0  0  0  0  0  0  0  0
   32.6067  -21.8039   33.8129 O   0  0  0  0  0  0  0  0  0  0  0  0
   33.0360  -22.6087   33.4400 H   0  0  0  0  0  0  0  0  0  0  0  0
  1  2  1  0  0  0
  2  3  1  0  0  0
  3  4  1  0  0  0
  4  5  2  0  0  0
  5  6  1  0  0  0
  6  7  1  0  0  0
  7  8  2  0  0  0
  8  9  1  0  0  0
  9 10  2  0  0  0
 10 11  1  0  0  0
 11 12  2  0  0  0
  5 13  1  0  0  0
 13 16  1  0  0  0
 16 17  2  0  0  0
 17 18  1  0  0  0
 17 19  1  0  0  0
 19 20  2  0  0  0
 20 21  1  0  0  0
 21 24  1  0  0  0
 24 25  1  0  0  0
 25 26  1  0  0  0
 26 27  1  0  0  0
 27 29  1  0  0  0
 29 30  1  0  0  0
 30 31  1  0  0  0
 31 32  1  0  0  0
 21 22  2  0  0  0
 22 23  1  0  0  0
 13 14  1  0  0  0
 14 33  1  0  0  0
 33 34  1  0  0  0
 34 35  1  0  0  0
 34 36  1  0  0  0
 34 37  1  0  0  0
 37 38  1  0  0  0
 14  2  1  0  0  0
 12  4  1  0  0  0
 22 16  1  0  0  0
 12  7  1  0  0  0
  6 15  1  0  0  0
 27 28  1  0  0  0
 38 39  1  0  0  0
M  END
> <minimizedAffinity>
-5.84742

> <CNNscore>
0.3336041868

> <CNNaffinity>
6.3294157982

> <CNN_VS>
2.1115195751

> <CNNaffinity_variance>
0.1124711037

$$$$
[H]OC([H])([H])C(F)(F)C([H])([H])N1[C@]([H])(c2c(F)c([H])nc(OC([H])([H])C([H])([H])N([H])C([H])([H])C([H])([H])C([H])([H])F)c2F)c2c(c3c([H])c([H])c([H])c([H])c3n2[H])C([H])([H])[C@@]1([H])C([H])([H])[H]


 39 42  0  0  0  0  0  0  0  0999 V2000
   36.7939  -18.8600   34.0006 C   0  0  0  0  0  0  0  0  0  0  0  0
   36.0716  -18.2978   35.1953 C   0  0  0  0  0  0  0  0  0  0  0  0
   37.2471  -17.9440   36.1529 C   0  0  0  0  0  0  0  0  0  0  0  0
   37.7817  -19.2465   36.5908 C   0  0  0  0  0  0  0  0  0  0  0  0
   36.9531  -20.3339   36.6957 C   0  0  0  0  0  0  0  0  0  0  0  0
   37.7362  -21.3541   37.1101 N   0  0  0  0  0  0  0  0  0  0  0  0
   39.0068  -20.9684   37.2710 C   0  0  0  0  0  0  0  0  0  0  0  0
   40.1706  -21.6016   37.6660 C   0  0  0  0  0  0  0  0  0  0  0  0
   41.3579  -20.9084   37.7331 C   0  0  0  0  0  0  0  0  0  0  0  0
   41.4209  -19.5500   37.4052 C   0  0  0  0  0  0  0  0  0  0  0  0
   40.2466  -18.9469   37.0155 C   0  0  0  0  0  0  0  0  0  0  0  0
   39.0552  -19.6282   36.9447 C   0  0  0  0  0  0  0  0  0  0  0  0
   35.4925  -20.3032   36.3933 C   0  0  0  0  0  0  0  0  0  0  0  0
   35.0931  -19.0617   35.8082 N   0  0  0  0  0  0  0  0  0  0  0  0
   37.4050  -22.3252   37.2861 H   0  0  0  0  0  0  0  0  0  0  0  0
   34.6809  -20.8673   37.4594 C   0  0  0  0  0  0  0  0  0  0  0  0
   34.8291  -20.5087   38.7819 C   0  0  0  0  0  0  0  0  0  0  0  0
   35.7548  -19.6122   39.0982 F   0  0  0  0  0  0  0  0  0  0  0  0
   34.0486  -21.0491   39.7885 C   0  0  0  0  0  0  0  0  0  0  0  0
   33.1095  -21.9580   39.4725 N   0  0  0  0  0  0  0  0  0  0  0  0
   32.8985  -22.3639   38.2098 C   0  0  0  0  0  0  0  0  0  0  0  0
   33.6889  -21.8125   37.2148 C   0  0  0  0  0  0  0  0  0  0  0  0
   33.4461  -22.2492   35.9510 F   0  0  0  0  0  0  0  0  0  0  0  0
   31.9282  -23.2913   37.9465 O   0  0  0  0  0  0  0  0  0  0  0  0
   30.6087  -23.0637   37.5623 C   0  0  0  0  0  0  0  0  0  0  0  0
   29.5709  -23.6319   38.4666 C   0  0  0  0  0  0  0  0  0  0  0  0
   29.1694  -22.7029   39.5089 N   0  0  0  0  0  0  0  0  0  0  0  0
   29.6531  -21.7980   39.4752 H   0  0  0  0  0  0  0  0  0  0  0  0
   29.1573  -23.2916   40.8162 C   0  0  0  0  0  0  0  0  0  0  0  0
   30.5387  -23.6427   41.3099 C   0  0  0  0  0  0  0  0  0  0  0  0
   30.6656  -25.0638   41.7741 C   0  0  0  0  0  0  0  0  0  0  0  0
   29.5578  -25.8342   41.5006 F   0  0  0  0  0  0  0  0  0  0  0  0
   33.7587  -18.7455   35.8896 C   0  0  0  0  0  0  0  0  0  0  0  0
   32.7774  -18.6985   34.8199 C   0  0  0  0  0  0  0  0  0  0  0  0
   32.8419  -17.5605   34.0163 F   0  0  0  0  0  0  0  0  0  0  0  0
   33.1601  -19.6921   33.8116 F   0  0  0  0  0  0  0  0  0  0  0  0
   31.3497  -19.0333   35.0360 C   0  0  0  0  0  0  0  0  0  0  0  0
   30.9959  -19.8652   36.0434 O   0  0  0  0  0  0  0  0  0  0  0  0
   30.7998  -19.3881   36.8831 H   0  0  0  0  0  0  0  0  0  0  0  0
  1  2  1  0  0  0
  2  3  1  0  0  0
  3  4  1  0  0  0
  4  5  2  0  0  0
  5  6  1  0  0  0
  6  7  1  0  0  0
  7  8  2  0  0  0
  8  9  1  0  0  0
  9 10  2  0  0  0
 10 11  1  0  0  0
 11 12  2  0  0  0
  5 13  1  0  0  0
 13 16  1  0  0  0
 16 17  2  0  0  0
 17 18  1  0  0  0
 17 19  1  0  0  0
 19 20  2  0  0  0
 20 21  1  0  0  0
 21 24  1  0  0  0
 24 25  1  0  0  0
 25 26  1  0  0  0
 26 27  1  0  0  0
 27 29  1  0  0  0
 29 30  1  0  0  0
 30 31  1  0  0  0
 31 32  1  0  0  0
 21 22  2  0  0  0
 22 23  1  0  0  0
 13 14  1  0  0  0
 14 33  1  0  0  0
 33 34  1  0  0  0
 34 35  1  0  0  0
 34 36  1  0  0  0
 34 37  1  0  0  0
 37 38  1  0  0  0
 14  2  1  0  0  0
 12  4  1  0  0  0
 22 16  1  0  0  0
 12  7  1  0  0  0
  6 15  1  0  0  0
 27 28  1  0  0  0
 38 39  1  0  0  0
M  END
> <minimizedAffinity>
-4.74666

> <CNNscore>
0.2791542709

> <CNNaffinity>
5.5066695213

> <CNN_VS>
1.5372103453

> <CNNaffinity_variance>
0.2790586352

$$$$
[H]OC([H])([H])C(F)(F)C([H])([H])N1[C@]([H])(c2c(F)c([H])nc(OC([H])([H])C([H])([H])N([H])C([H])([H])C([H])([H])C([H])([H])F)c2F)c2c(c3c([H])c([H])c([H])c([H])c3n2[H])C([H])([H])[C@@]1([H])C([H])([H])[H]


 39 42  0  0  0  0  0  0  0  0999 V2000
   33.4983  -17.5951   33.5700 C   0  0  0  0  0  0  0  0  0  0  0  0
   33.3036  -18.4118   34.8191 C   0  0  0  0  0  0  0  0  0  0  0  0
   33.1250  -17.3113   35.9060 C   0  0  0  0  0  0  0  0  0  0  0  0
   34.4573  -16.6945   36.0405 C   0  0  0  0  0  0  0  0  0  0  0  0
   35.5886  -17.4376   35.8210 C   0  0  0  0  0  0  0  0  0  0  0  0
   36.6261  -16.5946   36.0182 N   0  0  0  0  0  0  0  0  0  0  0  0
   36.2100  -15.3670   36.3486 C   0  0  0  0  0  0  0  0  0  0  0  0
   36.8436  -14.1750   36.6465 C   0  0  0  0  0  0  0  0  0  0  0  0
   36.1126  -13.0508   36.9571 C   0  0  0  0  0  0  0  0  0  0  0  0
   34.7142  -13.0819   36.9802 C   0  0  0  0  0  0  0  0  0  0  0  0
   34.1116  -14.2823   36.6793 C   0  0  0  0  0  0  0  0  0  0  0  0
   34.8306  -15.4114   36.3678 C   0  0  0  0  0  0  0  0  0  0  0  0
   35.5796  -18.8812   35.4450 C   0  0  0  0  0  0  0  0  0  0  0  0
   34.2601  -19.3522   35.1615 N   0  0  0  0  0  0  0  0  0  0  0  0
   37.6300  -16.8548   35.9273 H   0  0  0  0  0  0  0  0  0  0  0  0
   36.4461  -19.6913   36.2854 C   0  0  0  0  0  0  0  0  0  0  0  0
   37.6166  -20.2567   35.8273 C   0  0  0  0  0  0  0  0  0  0  0  0
   37.9677  -20.0569   34.5634 F   0  0  0  0  0  0  0  0  0  0  0  0
   38.4361  -21.0231   36.6370 C   0  0  0  0  0  0  0  0  0  0  0  0
   38.0842  -21.2282   37.9184 N   0  0  0  0  0  0  0  0  0  0  0  0
   36.9609  -20.7146   38.4459 C   0  0  0  0  0  0  0  0  0  0  0  0
   36.1523  -19.9500   37.6211 C   0  0  0  0  0  0  0  0  0  0  0  0
   35.0248  -19.4491   38.1909 F   0  0  0  0  0  0  0  0  0  0  0  0
   36.6530  -20.9555   39.7566 O   0  0  0  0  0  0  0  0  0  0  0  0
   36.9108  -22.1059   40.4987 C   0  0  0  0  0  0  0  0  0  0  0  0
   36.1626  -23.3222   40.0761 C   0  0  0  0  0  0  0  0  0  0  0  0
   34.7225  -23.1370   40.1256 N   0  0  0  0  0  0  0  0  0  0  0  0
   34.2922  -23.4194   41.0139 H   0  0  0  0  0  0  0  0  0  0  0  0
   34.0458  -23.6610   38.9753 C   0  0  0  0  0  0  0  0  0  0  0  0
   32.7985  -24.4300   39.3332 C   0  0  0  0  0  0  0  0  0  0  0  0
   32.1702  -25.1298   38.1642 C   0  0  0  0  0  0  0  0  0  0  0  0
   31.3208  -24.3293   37.4338 F   0  0  0  0  0  0  0  0  0  0  0  0
   34.0635  -20.7098   35.2351 C   0  0  0  0  0  0  0  0  0  0  0  0
   32.8786  -21.4258   35.6742 C   0  0  0  0  0  0  0  0  0  0  0  0
   31.8706  -21.5319   34.7163 F   0  0  0  0  0  0  0  0  0  0  0  0
   33.2226  -22.8475   35.7785 F   0  0  0  0  0  0  0  0  0  0  0  0
   32.2434  -21.1793   36.9906 C   0  0  0  0  0  0  0  0  0  0  0  0
   30.8955  -21.1030   37.0867 O   0  0  0  0  0  0  0  0  0  0  0  0
   30.4752  -21.9740   37.2763 H   0  0  0  0  0  0  0  0  0  0  0  0
  1  2  1  0  0  0
  2  3  1  0  0  0
  3  4  1  0  0  0
  4  5  2  0  0  0
  5  6  1  0  0  0
  6  7  1  0  0  0
  7  8  2  0  0  0
  8  9  1  0  0  0
  9 10  2  0  0  0
 10 11  1  0  0  0
 11 12  2  0  0  0
  5 13  1  0  0  0
 13 16  1  0  0  0
 16 17  2  0  0  0
 17 18  1  0  0  0
 17 19  1  0  0  0
 19 20  2  0  0  0
 20 21  1  0  0  0
 21 24  1  0  0  0
 24 25  1  0  0  0
 25 26  1  0  0  0
 26 27  1  0  0  0
 27 29  1  0  0  0
 29 30  1  0  0  0
 30 31  1  0  0  0
 31 32  1  0  0  0
 21 22  2  0  0  0
 22 23  1  0  0  0
 13 14  1  0  0  0
 14 33  1  0  0  0
 33 34  1  0  0  0
 34 35  1  0  0  0
 34 36  1  0  0  0
 34 37  1  0  0  0
 37 38  1  0  0  0
 14  2  1  0  0  0
 12  4  1  0  0  0
 22 16  1  0  0  0
 12  7  1  0  0  0
  6 15  1  0  0  0
 27 28  1  0  0  0
 38 39  1  0  0  0
M  END
> <minimizedAffinity>
-4.95773

> <CNNscore>
0.2741144001

> <CNNaffinity>
5.9964904785

> <CNN_VS>
1.6437244415

> <CNNaffinity_variance>
0.0545708947

$$$$
[H]c1c([H])c(C([H])(C(=O)N([H])C([H])([H])c2c([H])c([H])c(C(F)(F)F)c([H])c2C2([H])C([H])([H])C([H])([H])C([H])([H])C([H])([H])C2([H])[H])C([H])([H])[H])c([H])c(F)c1N([H])S(=O)(=O)C([H])([H])[H]


 36 38  0  0  0  0  0  0  0  0999 V2000
   36.6441  -18.6139   35.5376 C   0  0  0  0  0  0  0  0  0  0  0  0
   35.7246  -18.6331   34.9439 O   0  0  0  0  0  0  0  0  0  0  0  0
   38.0007  -18.9134   35.7113 N   0  0  0  0  0  0  0  0  0  0  0  0
   38.0532  -19.4277   34.4067 H   0  0  0  0  0  0  0  0  0  0  0  0
   35.4616  -18.7088   37.5268 C   0  0  0  0  0  0  0  0  0  0  0  0
   36.6487  -17.8555   37.0213 C   0  0  0  0  0  0  0  0  0  0  0  0
   36.2417  -16.5060   36.8587 C   0  0  0  0  0  0  0  0  0  0  0  0
   35.0836  -16.1340   36.3055 C   0  0  0  0  0  0  0  0  0  0  0  0
   34.6323  -14.8851   36.2632 C   0  0  0  0  0  0  0  0  0  0  0  0
   35.4624  -13.8341   36.8305 C   0  0  0  0  0  0  0  0  0  0  0  0
   36.6036  -14.1982   37.3563 C   0  0  0  0  0  0  0  0  0  0  0  0
   37.4519  -13.1683   37.7893 F   0  0  0  0  0  0  0  0  0  0  0  0
   37.0897  -15.4854   37.4416 C   0  0  0  0  0  0  0  0  0  0  0  0
   34.6957  -12.6574   36.9325 N   0  0  0  0  0  0  0  0  0  0  0  0
   35.1557  -11.8628   36.2602 H   0  0  0  0  0  0  0  0  0  0  0  0
   33.2916  -12.2302   37.6790 S   0  0  0  0  0  0  0  0  0  0  0  0
   33.1597  -10.4453   37.8237 C   0  0  0  0  0  0  0  0  0  0  0  0
   33.0797  -12.9774   38.9360 O   0  0  0  0  0  0  0  0  0  0  0  0
   32.1364  -12.5997   36.6917 O   0  0  0  0  0  0  0  0  0  0  0  0
   39.2120  -19.1844   35.8594 C   0  0  0  0  0  0  0  0  0  0  0  0
   39.9615  -19.8053   36.9814 C   0  0  0  0  0  0  0  0  0  0  0  0
   39.4819  -20.5886   37.9987 C   0  0  0  0  0  0  0  0  0  0  0  0
   40.1754  -20.7130   39.2435 C   0  0  0  0  0  0  0  0  0  0  0  0
   41.3010  -20.0376   39.3659 C   0  0  0  0  0  0  0  0  0  0  0  0
   41.8041  -19.2275   38.3566 C   0  0  0  0  0  0  0  0  0  0  0  0
   41.1773  -19.1087   37.2043 C   0  0  0  0  0  0  0  0  0  0  0  0
   41.6511  -18.4754   35.9301 C   0  0  0  0  0  0  0  0  0  0  0  0
   42.4340  -19.5161   35.0996 C   0  0  0  0  0  0  0  0  0  0  0  0
   43.6911  -20.0002   35.6612 C   0  0  0  0  0  0  0  0  0  0  0  0
   44.6186  -18.8625   36.0156 C   0  0  0  0  0  0  0  0  0  0  0  0
   43.9973  -17.5290   35.6851 C   0  0  0  0  0  0  0  0  0  0  0  0
   42.6056  -17.3254   36.1875 C   0  0  0  0  0  0  0  0  0  0  0  0
   41.9402  -19.8395   40.7606 C   0  0  0  0  0  0  0  0  0  0  0  0
   42.8541  -20.6759   41.1094 F   0  0  0  0  0  0  0  0  0  0  0  0
   40.8945  -19.7192   41.6484 F   0  0  0  0  0  0  0  0  0  0  0  0
   42.4901  -18.5205   40.7110 F   0  0  0  0  0  0  0  0  0  0  0  0
  5  6  1  0  0  0
  6  1  1  0  0  0
  1  2  2  0  0  0
  1  3  1  0  0  0
  3 20  1  0  0  0
 20 21  1  0  0  0
 21 22  2  0  0  0
 22 23  1  0  0  0
 23 24  2  0  0  0
 24 33  1  0  0  0
 33 34  1  0  0  0
 33 35  1  0  0  0
 33 36  1  0  0  0
 24 25  1  0  0  0
 25 26  2  0  0  0
 26 27  1  0  0  0
 27 28  1  0  0  0
 28 29  1  0  0  0
 29 30  1  0  0  0
 30 31  1  0  0  0
 31 32  1  0  0  0
  6  7  1  0  0  0
  7  8  2  0  0  0
  8  9  1  0  0  0
  9 10  2  0  0  0
 10 14  1  0  0  0
 14 16  1  0  0  0
 16 17  1  0  0  0
 16 18  2  0  0  0
 16 19  2  0  0  0
 10 11  1  0  0  0
 11 12  1  0  0  0
 11 13  2  0  0  0
 26 21  1  0  0  0
 32 27  1  0  0  0
 13  7  1  0  0  0
  3  4  1  0  0  0
 14 15  1  0  0  0
M  END
> <minimizedAffinity>
-8.28319

> <CNNscore>
0.3408795297

> <CNNaffinity>
6.3039536476

> <CNN_VS>
2.1488888264

> <CNNaffinity_variance>
0.2528214753

$$$$
[H]c1c([H])c(C([H])(C(=O)N([H])C([H])([H])c2c([H])c([H])c(C(F)(F)F)c([H])c2C2([H])C([H])([H])C([H])([H])C([H])([H])C([H])([H])C2([H])[H])C([H])([H])[H])c([H])c(F)c1N([H])S(=O)(=O)C([H])([H])[H]


 36 38  0  0  0  0  0  0  0  0999 V2000
   37.1117  -19.5699   36.3389 C   0  0  0  0  0  0  0  0  0  0  0  0
   38.1182  -19.2995   36.6737 O   0  0  0  0  0  0  0  0  0  0  0  0
   35.9015  -20.2525   36.5119 N   0  0  0  0  0  0  0  0  0  0  0  0
   36.3365  -20.7036   37.7674 H   0  0  0  0  0  0  0  0  0  0  0  0
   37.9221  -18.5297   34.4349 C   0  0  0  0  0  0  0  0  0  0  0  0
   36.5078  -18.9093   34.9334 C   0  0  0  0  0  0  0  0  0  0  0  0
   35.7723  -17.7367   35.2455 C   0  0  0  0  0  0  0  0  0  0  0  0
   34.4983  -17.5360   34.8963 C   0  0  0  0  0  0  0  0  0  0  0  0
   33.7596  -16.5043   35.2902 C   0  0  0  0  0  0  0  0  0  0  0  0
   34.3792  -15.4989   36.1391 C   0  0  0  0  0  0  0  0  0  0  0  0
   35.6317  -15.6883   36.4658 C   0  0  0  0  0  0  0  0  0  0  0  0
   36.2568  -14.6558   37.1805 F   0  0  0  0  0  0  0  0  0  0  0  0
   36.4185  -16.7591   36.0983 C   0  0  0  0  0  0  0  0  0  0  0  0
   33.3725  -14.6621   36.6582 N   0  0  0  0  0  0  0  0  0  0  0  0
   32.4025  -15.2538   36.7203 H   0  0  0  0  0  0  0  0  0  0  0  0
   33.3132  -13.1344   37.2695 S   0  0  0  0  0  0  0  0  0  0  0  0
   34.6096  -12.1111   36.5650 C   0  0  0  0  0  0  0  0  0  0  0  0
   33.2431  -13.1277   38.7454 O   0  0  0  0  0  0  0  0  0  0  0  0
   32.0009  -12.4881   36.7162 O   0  0  0  0  0  0  0  0  0  0  0  0
   34.8239  -20.8650   36.6729 C   0  0  0  0  0  0  0  0  0  0  0  0
   34.0226  -21.1641   37.8874 C   0  0  0  0  0  0  0  0  0  0  0  0
   34.3806  -21.0230   39.2027 C   0  0  0  0  0  0  0  0  0  0  0  0
   33.7459  -21.7757   40.2402 C   0  0  0  0  0  0  0  0  0  0  0  0
   32.7971  -22.6132   39.8704 C   0  0  0  0  0  0  0  0  0  0  0  0
   32.4223  -22.7851   38.5445 C   0  0  0  0  0  0  0  0  0  0  0  0
   32.9959  -22.0942   37.5809 C   0  0  0  0  0  0  0  0  0  0  0  0
   32.5977  -21.9684   36.1405 C   0  0  0  0  0  0  0  0  0  0  0  0
   31.4164  -20.9808   36.0187 C   0  0  0  0  0  0  0  0  0  0  0  0
   30.1529  -21.3824   36.6290 C   0  0  0  0  0  0  0  0  0  0  0  0
   29.7050  -22.7400   36.1426 C   0  0  0  0  0  0  0  0  0  0  0  0
   30.6826  -23.3129   35.1480 C   0  0  0  0  0  0  0  0  0  0  0  0
   32.1161  -23.2870   35.5666 C   0  0  0  0  0  0  0  0  0  0  0  0
   32.2918  -23.6969   40.8519 C   0  0  0  0  0  0  0  0  0  0  0  0
   32.9319  -24.8133   40.8709 F   0  0  0  0  0  0  0  0  0  0  0  0
   30.9365  -23.8088   40.6354 F   0  0  0  0  0  0  0  0  0  0  0  0
   32.3748  -23.0739   42.1363 F   0  0  0  0  0  0  0  0  0  0  0  0
  5  6  1  0  0  0
  6  1  1  0  0  0
  1  2  2  0  0  0
  1  3  1  0  0  0
  3 20  1  0  0  0
 20 21  1  0  0  0
 21 22  2  0  0  0
 22 23  1  0  0  0
 23 24  2  0  0  0
 24 33  1  0  0  0
 33 34  1  0  0  0
 33 35  1  0  0  0
 33 36  1  0  0  0
 24 25  1  0  0  0
 25 26  2  0  0  0
 26 27  1  0  0  0
 27 28  1  0  0  0
 28 29  1  0  0  0
 29 30  1  0  0  0
 30 31  1  0  0  0
 31 32  1  0  0  0
  6  7  1  0  0  0
  7  8  2  0  0  0
  8  9  1  0  0  0
  9 10  2  0  0  0
 10 14  1  0  0  0
 14 16  1  0  0  0
 16 17  1  0  0  0
 16 18  2  0  0  0
 16 19  2  0  0  0
 10 11  1  0  0  0
 11 12  1  0  0  0
 11 13  2  0  0  0
 26 21  1  0  0  0
 32 27  1  0  0  0
 13  7  1  0  0  0
  3  4  1  0  0  0
 14 15  1  0  0  0
M  END
> <minimizedAffinity>
-6.22498

> <CNNscore>
0.2911707759

> <CNNaffinity>
6.0478692055

> <CNN_VS>
1.7609627247

> <CNNaffinity_variance>
0.0460194275

$$$$
[H]c1c([H])c(C([H])(C(=O)N([H])C([H])([H])c2c([H])c([H])c(C(F)(F)F)c([H])c2C2([H])C([H])([H])C([H])([H])C([H])([H])C([H])([H])C2([H])[H])C([H])([H])[H])c([H])c(F)c1N([H])S(=O)(=O)C([H])([H])[H]


 36 38  0  0  0  0  0  0  0  0999 V2000
   36.1246  -18.4847   34.7310 C   0  0  0  0  0  0  0  0  0  0  0  0
   35.4972  -18.3580   33.8429 O   0  0  0  0  0  0  0  0  0  0  0  0
   37.3431  -18.8123   35.3377 N   0  0  0  0  0  0  0  0  0  0  0  0
   37.9262  -18.9819   34.0727 H   0  0  0  0  0  0  0  0  0  0  0  0
   34.1305  -18.7425   35.8806 C   0  0  0  0  0  0  0  0  0  0  0  0
   35.5034  -18.1236   36.2344 C   0  0  0  0  0  0  0  0  0  0  0  0
   35.3818  -16.7159   36.3651 C   0  0  0  0  0  0  0  0  0  0  0  0
   34.3642  -16.0029   35.8739 C   0  0  0  0  0  0  0  0  0  0  0  0
   34.1705  -14.7076   36.0980 C   0  0  0  0  0  0  0  0  0  0  0  0
   35.1450  -13.9970   36.9110 C   0  0  0  0  0  0  0  0  0  0  0  0
   36.1498  -14.6932   37.3767 C   0  0  0  0  0  0  0  0  0  0  0  0
   37.1480  -13.9779   38.0547 F   0  0  0  0  0  0  0  0  0  0  0  0
   36.3666  -16.0414   37.1871 C   0  0  0  0  0  0  0  0  0  0  0  0
   34.6179  -12.7358   37.2498 N   0  0  0  0  0  0  0  0  0  0  0  0
   35.3621  -11.9336   36.9375 H   0  0  0  0  0  0  0  0  0  0  0  0
   33.1923  -12.1833   37.8609 S   0  0  0  0  0  0  0  0  0  0  0  0
   33.1629  -10.3883   37.8968 C   0  0  0  0  0  0  0  0  0  0  0  0
   32.8414  -12.8407   39.1368 O   0  0  0  0  0  0  0  0  0  0  0  0
   32.0922  -12.5424   36.8089 O   0  0  0  0  0  0  0  0  0  0  0  0
   38.4340  -19.1065   35.8722 C   0  0  0  0  0  0  0  0  0  0  0  0
   39.0439  -20.4120   36.2331 C   0  0  0  0  0  0  0  0  0  0  0  0
   38.4331  -21.6313   36.3690 C   0  0  0  0  0  0  0  0  0  0  0  0
   39.0007  -22.6722   37.1692 C   0  0  0  0  0  0  0  0  0  0  0  0
   40.1426  -22.4027   37.7706 C   0  0  0  0  0  0  0  0  0  0  0  0
   40.7774  -21.1727   37.6602 C   0  0  0  0  0  0  0  0  0  0  0  0
   40.2672  -20.2082   36.9225 C   0  0  0  0  0  0  0  0  0  0  0  0
   40.8885  -18.9104   36.4998 C   0  0  0  0  0  0  0  0  0  0  0  0
   41.5184  -19.0749   35.0991 C   0  0  0  0  0  0  0  0  0  0  0  0
   42.6547  -19.9839   34.9874 C   0  0  0  0  0  0  0  0  0  0  0  0
   43.7445  -19.6386   35.9740 C   0  0  0  0  0  0  0  0  0  0  0  0
   43.3673  -18.4388   36.8056 C   0  0  0  0  0  0  0  0  0  0  0  0
   42.0107  -18.4883   37.4284 C   0  0  0  0  0  0  0  0  0  0  0  0
   40.6586  -23.3198   38.9046 C   0  0  0  0  0  0  0  0  0  0  0  0
   41.8794  -23.1576   39.2783 F   0  0  0  0  0  0  0  0  0  0  0  0
   40.3302  -24.6057   38.5376 F   0  0  0  0  0  0  0  0  0  0  0  0
   39.7810  -23.0505   40.0009 F   0  0  0  0  0  0  0  0  0  0  0  0
  5  6  1  0  0  0
  6  1  1  0  0  0
  1  2  2  0  0  0
  1  3  1  0  0  0
  3 20  1  0  0  0
 20 21  1  0  0  0
 21 22  2  0  0  0
 22 23  1  0  0  0
 23 24  2  0  0  0
 24 33  1  0  0  0
 33 34  1  0  0  0
 33 35  1  0  0  0
 33 36  1  0  0  0
 24 25  1  0  0  0
 25 26  2  0  0  0
 26 27  1  0  0  0
 27 28  1  0  0  0
 28 29  1  0  0  0
 29 30  1  0  0  0
 30 31  1  0  0  0
 31 32  1  0  0  0
  6  7  1  0  0  0
  7  8  2  0  0  0
  8  9  1  0  0  0
  9 10  2  0  0  0
 10 14  1  0  0  0
 14 16  1  0  0  0
 16 17  1  0  0  0
 16 18  2  0  0  0
 16 19  2  0  0  0
 10 11  1  0  0  0
 11 12  1  0  0  0
 11 13  2  0  0  0
 26 21  1  0  0  0
 32 27  1  0  0  0
 13  7  1  0  0  0
  3  4  1  0  0  0
 14 15  1  0  0  0
M  END
> <minimizedAffinity>
-6.94996

> <CNNscore>
0.2821630836

> <CNNaffinity>
6.1627950668

> <CNN_VS>
1.7389132977

> <CNNaffinity_variance>
0.2873140872

$$$$
[H]c1c([H])c(C([H])(C(=O)N([H])C([H])([H])c2c([H])c([H])c(C(F)(F)F)c([H])c2C2([H])C([H])([H])C([H])([H])C([H])([H])C([H])([H])C2([H])[H])C([H])([H])[H])c([H])c(F)c1N([H])S(=O)(=O)C([H])([H])[H]


 36 38  0  0  0  0  0  0  0  0999 V2000
   36.8496  -14.4396   37.8530 C   0  0  0  0  0  0  0  0  0  0  0  0
   37.3969  -13.7526   38.5062 O   0  0  0  0  0  0  0  0  0  0  0  0
   36.4002  -15.7234   37.5211 N   0  0  0  0  0  0  0  0  0  0  0  0
   36.9577  -16.2242   38.7074 H   0  0  0  0  0  0  0  0  0  0  0  0
   37.0917  -12.7337   36.3052 C   0  0  0  0  0  0  0  0  0  0  0  0
   36.0345  -13.8407   36.5288 C   0  0  0  0  0  0  0  0  0  0  0  0
   34.8101  -13.2635   36.9543 C   0  0  0  0  0  0  0  0  0  0  0  0
   33.7403  -13.9693   37.3322 C   0  0  0  0  0  0  0  0  0  0  0  0
   32.6355  -13.4472   37.8538 C   0  0  0  0  0  0  0  0  0  0  0  0
   32.5612  -12.0022   38.0024 C   0  0  0  0  0  0  0  0  0  0  0  0
   33.6029  -11.3117   37.6158 C   0  0  0  0  0  0  0  0  0  0  0  0
   33.4766   -9.9150   37.6471 F   0  0  0  0  0  0  0  0  0  0  0  0
   34.7739  -11.8217   37.0969 C   0  0  0  0  0  0  0  0  0  0  0  0
   31.4526  -11.6870   38.8115 N   0  0  0  0  0  0  0  0  0  0  0  0
   31.8254  -11.1785   39.7589 H   0  0  0  0  0  0  0  0  0  0  0  0
   29.8165  -11.7812   38.6524 S   0  0  0  0  0  0  0  0  0  0  0  0
   29.0071  -10.4572   39.5557 C   0  0  0  0  0  0  0  0  0  0  0  0
   29.3064  -13.1379   38.9398 O   0  0  0  0  0  0  0  0  0  0  0  0
   29.4982  -11.4472   37.1581 O   0  0  0  0  0  0  0  0  0  0  0  0
   36.0027  -16.8725   37.2310 C   0  0  0  0  0  0  0  0  0  0  0  0
   35.2591  -17.4004   36.0586 C   0  0  0  0  0  0  0  0  0  0  0  0
   34.0784  -16.9542   35.5248 C   0  0  0  0  0  0  0  0  0  0  0  0
   33.2378  -17.8055   34.7407 C   0  0  0  0  0  0  0  0  0  0  0  0
   33.6542  -19.0425   34.5546 C   0  0  0  0  0  0  0  0  0  0  0  0
   34.8397  -19.5247   35.0931 C   0  0  0  0  0  0  0  0  0  0  0  0
   35.6245  -18.7492   35.8126 C   0  0  0  0  0  0  0  0  0  0  0  0
   37.0235  -19.0010   36.2906 C   0  0  0  0  0  0  0  0  0  0  0  0
   38.0234  -18.3018   35.3435 C   0  0  0  0  0  0  0  0  0  0  0  0
   38.0967  -18.8006   33.9739 C   0  0  0  0  0  0  0  0  0  0  0  0
   38.3484  -20.2891   33.9350 C   0  0  0  0  0  0  0  0  0  0  0  0
   38.4647  -20.8591   35.3260 C   0  0  0  0  0  0  0  0  0  0  0  0
   37.3738  -20.4764   36.2716 C   0  0  0  0  0  0  0  0  0  0  0  0
   32.6797  -20.1176   34.0182 C   0  0  0  0  0  0  0  0  0  0  0  0
   33.1454  -20.9508   33.1549 F   0  0  0  0  0  0  0  0  0  0  0  0
   31.5460  -19.4443   33.6216 F   0  0  0  0  0  0  0  0  0  0  0  0
   32.2573  -20.8237   35.1877 F   0  0  0  0  0  0  0  0  0  0  0  0
  5  6  1  0  0  0
  6  1  1  0  0  0
  1  2  2  0  0  0
  1  3  1  0  0  0
  3 20  1  0  0  0
 20 21  1  0  0  0
 21 22  2  0  0  0
 22 23  1  0  0  0
 23 24  2  0  0  0
 24 33  1  0  0  0
 33 34  1  0  0  0
 33 35  1  0  0  0
 33 36  1  0  0  0
 24 25  1  0  0  0
 25 26  2  0  0  0
 26 27  1  0  0  0
 27 28  1  0  0  0
 28 29  1  0  0  0
 29 30  1  0  0  0
 30 31  1  0  0  0
 31 32  1  0  0  0
  6  7  1  0  0  0
  7  8  2  0  0  0
  8  9  1  0  0  0
  9 10  2  0  0  0
 10 14  1  0  0  0
 14 16  1  0  0  0
 16 17  1  0  0  0
 16 18  2  0  0  0
 16 19  2  0  0  0
 10 11  1  0  0  0
 11 12  1  0  0  0
 11 13  2  0  0  0
 26 21  1  0  0  0
 32 27  1  0  0  0
 13  7  1  0  0  0
  3  4  1  0  0  0
 14 15  1  0  0  0
M  END
> <minimizedAffinity>
-7.82104

> <CNNscore>
0.2730175555

> <CNNaffinity>
6.4430894852

> <CNN_VS>
1.7590765953

> <CNNaffinity_variance>
0.1943955421

$$$$
[H]c1c([H])c(C([H])(C(=O)N([H])C([H])([H])c2c([H])c([H])c(C(F)(F)F)c([H])c2C2([H])C([H])([H])C([H])([H])C([H])([H])C([H])([H])C2([H])[H])C([H])([H])[H])c([H])c(F)c1N([H])S(=O)(=O)C([H])([H])[H]


 36 38  0  0  0  0  0  0  0  0999 V2000
   36.5992  -17.3358   37.2274 C   0  0  0  0  0  0  0  0  0  0  0  0
   36.0580  -16.6547   37.8918 O   0  0  0  0  0  0  0  0  0  0  0  0
   37.4071  -18.4591   37.0130 N   0  0  0  0  0  0  0  0  0  0  0  0
   37.3626  -18.7516   38.3847 H   0  0  0  0  0  0  0  0  0  0  0  0
   36.0962  -15.6301   35.7435 C   0  0  0  0  0  0  0  0  0  0  0  0
   36.5252  -17.1072   35.5785 C   0  0  0  0  0  0  0  0  0  0  0  0
   35.4514  -17.8680   35.0480 C   0  0  0  0  0  0  0  0  0  0  0  0
   35.5954  -18.8302   34.1322 C   0  0  0  0  0  0  0  0  0  0  0  0
   34.6218  -19.6360   33.7221 C   0  0  0  0  0  0  0  0  0  0  0  0
   33.2923  -19.4483   34.2814 C   0  0  0  0  0  0  0  0  0  0  0  0
   33.1495  -18.4944   35.1651 C   0  0  0  0  0  0  0  0  0  0  0  0
   31.8430  -18.2391   35.6073 F   0  0  0  0  0  0  0  0  0  0  0  0
   34.1418  -17.6594   35.6329 C   0  0  0  0  0  0  0  0  0  0  0  0
   32.4945  -20.5552   33.9331 N   0  0  0  0  0  0  0  0  0  0  0  0
   32.2335  -20.4835   32.8278 H   0  0  0  0  0  0  0  0  0  0  0  0
   31.9761  -21.9178   34.6984 S   0  0  0  0  0  0  0  0  0  0  0  0
   33.0003  -22.2792   36.1283 C   0  0  0  0  0  0  0  0  0  0  0  0
   31.7883  -23.0452   33.7620 O   0  0  0  0  0  0  0  0  0  0  0  0
   30.5869  -21.5698   35.3269 O   0  0  0  0  0  0  0  0  0  0  0  0
   38.1287  -19.4630   36.8294 C   0  0  0  0  0  0  0  0  0  0  0  0
   39.5403  -19.7518   37.1905 C   0  0  0  0  0  0  0  0  0  0  0  0
   40.0735  -19.9863   38.4310 C   0  0  0  0  0  0  0  0  0  0  0  0
   41.4598  -19.7681   38.7078 C   0  0  0  0  0  0  0  0  0  0  0  0
   42.2024  -19.3304   37.7102 C   0  0  0  0  0  0  0  0  0  0  0  0
   41.6867  -19.0731   36.4469 C   0  0  0  0  0  0  0  0  0  0  0  0
   40.4130  -19.2748   36.1786 C   0  0  0  0  0  0  0  0  0  0  0  0
   39.7132  -19.2712   34.8522 C   0  0  0  0  0  0  0  0  0  0  0  0
   39.3646  -20.7217   34.4517 C   0  0  0  0  0  0  0  0  0  0  0  0
   40.4825  -21.6200   34.1810 C   0  0  0  0  0  0  0  0  0  0  0  0
   41.4248  -21.0436   33.1514 C   0  0  0  0  0  0  0  0  0  0  0  0
   40.9508  -19.6946   32.6729 C   0  0  0  0  0  0  0  0  0  0  0  0
   40.5930  -18.7202   33.7467 C   0  0  0  0  0  0  0  0  0  0  0  0
   43.6109  -18.7532   37.9855 C   0  0  0  0  0  0  0  0  0  0  0  0
   44.1448  -19.0308   39.1232 F   0  0  0  0  0  0  0  0  0  0  0  0
   43.5396  -17.4100   37.6905 F   0  0  0  0  0  0  0  0  0  0  0  0
   44.4201  -19.2841   36.9329 F   0  0  0  0  0  0  0  0  0  0  0  0
  5  6  1  0  0  0
  6  1  1  0  0  0
  1  2  2  0  0  0
  1  3  1  0  0  0
  3 20  1  0  0  0
 20 21  1  0  0  0
 21 22  2  0  0  0
 22 23  1  0  0  0
 23 24  2  0  0  0
 24 33  1  0  0  0
 33 34  1  0  0  0
 33 35  1  0  0  0
 33 36  1  0  0  0
 24 25  1  0  0  0
 25 26  2  0  0  0
 26 27  1  0  0  0
 27 28  1  0  0  0
 28 29  1  0  0  0
 29 30  1  0  0  0
 30 31  1  0  0  0
 31 32  1  0  0  0
  6  7  1  0  0  0
  7  8  2  0  0  0
  8  9  1  0  0  0
  9 10  2  0  0  0
 10 14  1  0  0  0
 14 16  1  0  0  0
 16 17  1  0  0  0
 16 18  2  0  0  0
 16 19  2  0  0  0
 10 11  1  0  0  0
 11 12  1  0  0  0
 11 13  2  0  0  0
 26 21  1  0  0  0
 32 27  1  0  0  0
 13  7  1  0  0  0
  3  4  1  0  0  0
 14 15  1  0  0  0
M  END
> <minimizedAffinity>
-6.83242

> <CNNscore>
0.2375908047

> <CNNaffinity>
5.5374450684

> <CNN_VS>
1.3156460524

> <CNNaffinity_variance>
0.1787345856

$$$$
[H]c1c([H])c(C([H])(C(=O)N([H])C([H])([H])c2c([H])c([H])c(C(F)(F)F)c([H])c2C2([H])C([H])([H])C([H])([H])C([H])([H])C([H])([H])C2([H])[H])C([H])([H])[H])c([H])c(F)c1N([H])S(=O)(=O)C([H])([H])[H]


 36 38  0  0  0  0  0  0  0  0999 V2000
   36.6433  -14.9924   37.7536 C   0  0  0  0  0  0  0  0  0  0  0  0
   37.0614  -14.3829   38.5611 O   0  0  0  0  0  0  0  0  0  0  0  0
   36.3017  -16.2328   37.2014 N   0  0  0  0  0  0  0  0  0  0  0  0
   36.7044  -16.8696   38.3851 H   0  0  0  0  0  0  0  0  0  0  0  0
   37.1948  -13.2672   36.3099 C   0  0  0  0  0  0  0  0  0  0  0  0
   36.0015  -14.2466   36.4088 C   0  0  0  0  0  0  0  0  0  0  0  0
   34.8261  -13.5435   36.7795 C   0  0  0  0  0  0  0  0  0  0  0  0
   33.6598  -14.1305   37.0631 C   0  0  0  0  0  0  0  0  0  0  0  0
   32.5902  -13.4991   37.5350 C   0  0  0  0  0  0  0  0  0  0  0  0
   32.6728  -12.0606   37.7340 C   0  0  0  0  0  0  0  0  0  0  0  0
   33.8101  -11.4852   37.4394 C   0  0  0  0  0  0  0  0  0  0  0  0
   33.8433  -10.0849   37.5163 F   0  0  0  0  0  0  0  0  0  0  0  0
   34.9464  -12.1125   36.9748 C   0  0  0  0  0  0  0  0  0  0  0  0
   31.5569  -11.6429   38.4845 N   0  0  0  0  0  0  0  0  0  0  0  0
   31.7470  -11.8766   39.5818 H   0  0  0  0  0  0  0  0  0  0  0  0
   30.1605  -10.8319   38.1625 S   0  0  0  0  0  0  0  0  0  0  0  0
   29.0738  -10.8336   39.5918 C   0  0  0  0  0  0  0  0  0  0  0  0
   29.5355  -11.2788   36.9004 O   0  0  0  0  0  0  0  0  0  0  0  0
   30.5508   -9.3255   38.0063 O   0  0  0  0  0  0  0  0  0  0  0  0
   35.9996  -17.3438   36.7147 C   0  0  0  0  0  0  0  0  0  0  0  0
   35.4190  -18.5695   37.3206 C   0  0  0  0  0  0  0  0  0  0  0  0
   35.7319  -19.1615   38.5163 C   0  0  0  0  0  0  0  0  0  0  0  0
   35.4780  -20.5482   38.7586 C   0  0  0  0  0  0  0  0  0  0  0  0
   34.9264  -21.2312   37.7750 C   0  0  0  0  0  0  0  0  0  0  0  0
   34.6098  -20.6602   36.5496 C   0  0  0  0  0  0  0  0  0  0  0  0
   34.8343  -19.3835   36.3162 C   0  0  0  0  0  0  0  0  0  0  0  0
   34.3752  -18.5365   35.1669 C   0  0  0  0  0  0  0  0  0  0  0  0
   32.9985  -17.9208   35.5006 C   0  0  0  0  0  0  0  0  0  0  0  0
   31.8770  -18.8444   35.6391 C   0  0  0  0  0  0  0  0  0  0  0  0
   31.7323  -19.7322   34.4262 C   0  0  0  0  0  0  0  0  0  0  0  0
   32.7839  -19.4187   33.3922 C   0  0  0  0  0  0  0  0  0  0  0  0
   34.1864  -19.3499   33.9010 C   0  0  0  0  0  0  0  0  0  0  0  0
   34.9203  -22.7777   37.8113 C   0  0  0  0  0  0  0  0  0  0  0  0
   34.2949  -23.3376   38.7870 F   0  0  0  0  0  0  0  0  0  0  0  0
   36.2317  -23.1703   37.6614 F   0  0  0  0  0  0  0  0  0  0  0  0
   34.3145  -23.1559   36.5725 F   0  0  0  0  0  0  0  0  0  0  0  0
  5  6  1  0  0  0
  6  1  1  0  0  0
  1  2  2  0  0  0
  1  3  1  0  0  0
  3 20  1  0  0  0
 20 21  1  0  0  0
 21 22  2  0  0  0
 22 23  1  0  0  0
 23 24  2  0  0  0
 24 33  1  0  0  0
 33 34  1  0  0  0
 33 35  1  0  0  0
 33 36  1  0  0  0
 24 25  1  0  0  0
 25 26  2  0  0  0
 26 27  1  0  0  0
 27 28  1  0  0  0
 28 29  1  0  0  0
 29 30  1  0  0  0
 30 31  1  0  0  0
 31 32  1  0  0  0
  6  7  1  0  0  0
  7  8  2  0  0  0
  8  9  1  0  0  0
  9 10  2  0  0  0
 10 14  1  0  0  0
 14 16  1  0  0  0
 16 17  1  0  0  0
 16 18  2  0  0  0
 16 19  2  0  0  0
 10 11  1  0  0  0
 11 12  1  0  0  0
 11 13  2  0  0  0
 26 21  1  0  0  0
 32 27  1  0  0  0
 13  7  1  0  0  0
  3  4  1  0  0  0
 14 15  1  0  0  0
M  END
> <minimizedAffinity>
-7.06247

> <CNNscore>
0.2311772108

> <CNNaffinity>
6.3346877098

> <CNN_VS>
1.4644354582

> <CNNaffinity_variance>
0.0817196518

$$$$
[H]c1c([H])c(C([H])(C(=O)N([H])C([H])([H])c2c([H])c([H])c(C(F)(F)F)c([H])c2C2([H])C([H])([H])C([H])([H])C([H])([H])C([H])([H])C2([H])[H])C([H])([H])[H])c([H])c(F)c1N([H])S(=O)(=O)C([H])([H])[H]


 36 38  0  0  0  0  0  0  0  0999 V2000
   36.8956  -19.6923   36.1934 C   0  0  0  0  0  0  0  0  0  0  0  0
   37.9768  -19.5570   36.2987 O   0  0  0  0  0  0  0  0  0  0  0  0
   35.6630  -20.1533   36.6713 N   0  0  0  0  0  0  0  0  0  0  0  0
   36.2770  -20.5509   37.8688 H   0  0  0  0  0  0  0  0  0  0  0  0
   37.4550  -18.7937   34.1334 C   0  0  0  0  0  0  0  0  0  0  0  0
   36.1165  -19.0754   34.8559 C   0  0  0  0  0  0  0  0  0  0  0  0
   35.4861  -17.8527   35.2037 C   0  0  0  0  0  0  0  0  0  0  0  0
   34.2721  -17.4886   34.7805 C   0  0  0  0  0  0  0  0  0  0  0  0
   33.6171  -16.4109   35.1986 C   0  0  0  0  0  0  0  0  0  0  0  0
   34.2697  -15.5410   36.1645 C   0  0  0  0  0  0  0  0  0  0  0  0
   35.4653  -15.8900   36.5646 C   0  0  0  0  0  0  0  0  0  0  0  0
   36.1368  -14.9846   37.3995 F   0  0  0  0  0  0  0  0  0  0  0  0
   36.1617  -17.0136   36.1732 C   0  0  0  0  0  0  0  0  0  0  0  0
   33.3186  -14.6354   36.6729 N   0  0  0  0  0  0  0  0  0  0  0  0
   32.3092  -15.1581   36.7260 H   0  0  0  0  0  0  0  0  0  0  0  0
   33.3597  -13.1063   37.2823 S   0  0  0  0  0  0  0  0  0  0  0  0
   34.7080  -12.1648   36.5612 C   0  0  0  0  0  0  0  0  0  0  0  0
   33.3072  -13.0939   38.7588 O   0  0  0  0  0  0  0  0  0  0  0  0
   32.0831  -12.3816   36.7430 O   0  0  0  0  0  0  0  0  0  0  0  0
   34.5661  -20.5678   37.1042 C   0  0  0  0  0  0  0  0  0  0  0  0
   33.2825  -20.8784   36.4242 C   0  0  0  0  0  0  0  0  0  0  0  0
   32.5767  -20.1066   35.5387 C   0  0  0  0  0  0  0  0  0  0  0  0
   31.1712  -20.2834   35.3403 C   0  0  0  0  0  0  0  0  0  0  0  0
   30.5857  -21.2271   36.0508 C   0  0  0  0  0  0  0  0  0  0  0  0
   31.2735  -22.0157   36.9635 C   0  0  0  0  0  0  0  0  0  0  0  0
   32.5685  -21.8657   37.1513 C   0  0  0  0  0  0  0  0  0  0  0  0
   33.5225  -22.7404   37.9089 C   0  0  0  0  0  0  0  0  0  0  0  0
   34.0670  -23.8398   36.9704 C   0  0  0  0  0  0  0  0  0  0  0  0
   33.1081  -24.8240   36.4785 C   0  0  0  0  0  0  0  0  0  0  0  0
   32.3517  -25.4795   37.6091 C   0  0  0  0  0  0  0  0  0  0  0  0
   32.7982  -24.9448   38.9463 C   0  0  0  0  0  0  0  0  0  0  0  0
   32.8447  -23.4564   39.0612 C   0  0  0  0  0  0  0  0  0  0  0  0
   29.0432  -21.2739   36.1586 C   0  0  0  0  0  0  0  0  0  0  0  0
   28.4184  -21.9996   35.2988 F   0  0  0  0  0  0  0  0  0  0  0  0
   28.6233  -19.9643   36.2267 F   0  0  0  0  0  0  0  0  0  0  0  0
   28.7981  -21.7725   37.4762 F   0  0  0  0  0  0  0  0  0  0  0  0
  5  6  1  0  0  0
  6  1  1  0  0  0
  1  2  2  0  0  0
  1  3  1  0  0  0
  3 20  1  0  0  0
 20 21  1  0  0  0
 21 22  2  0  0  0
 22 23  1  0  0  0
 23 24  2  0  0  0
 24 33  1  0  0  0
 33 34  1  0  0  0
 33 35  1  0  0  0
 33 36  1  0  0  0
 24 25  1  0  0  0
 25 26  2  0  0  0
 26 27  1  0  0  0
 27 28  1  0  0  0
 28 29  1  0  0  0
 29 30  1  0  0  0
 30 31  1  0  0  0
 31 32  1  0  0  0
  6  7  1  0  0  0
  7  8  2  0  0  0
  8  9  1  0  0  0
  9 10  2  0  0  0
 10 14  1  0  0  0
 14 16  1  0  0  0
 16 17  1  0  0  0
 16 18  2  0  0  0
 16 19  2  0  0  0
 10 11  1  0  0  0
 11 12  1  0  0  0
 11 13  2  0  0  0
 26 21  1  0  0  0
 32 27  1  0  0  0
 13  7  1  0  0  0
  3  4  1  0  0  0
 14 15  1  0  0  0
M  END
> <minimizedAffinity>
-6.80807

> <CNNscore>
0.2277125120

> <CNNaffinity>
5.9944062233

> <CNN_VS>
1.3650013208

> <CNNaffinity_variance>
0.1035637408

$$$$
[H]c1c([H])c(C([H])(C(=O)N([H])C([H])([H])c2c([H])c([H])c(C(F)(F)F)c([H])c2C2([H])C([H])([H])C([H])([H])C([H])([H])C([H])([H])C2([H])[H])C([H])([H])[H])c([H])c(F)c1N([H])S(=O)(=O)C([H])([H])[H]


 36 38  0  0  0  0  0  0  0  0999 V2000
   31.8512  -19.1306   35.5485 C   0  0  0  0  0  0  0  0  0  0  0  0
   30.8041  -19.3532   35.7774 O   0  0  0  0  0  0  0  0  0  0  0  0
   32.8929  -18.2232   35.3217 N   0  0  0  0  0  0  0  0  0  0  0  0
   32.0267  -17.1578   35.6112 H   0  0  0  0  0  0  0  0  0  0  0  0
   31.8337  -21.3465   34.8748 C   0  0  0  0  0  0  0  0  0  0  0  0
   32.9372  -20.3816   35.3692 C   0  0  0  0  0  0  0  0  0  0  0  0
   33.3994  -20.7874   36.6478 C   0  0  0  0  0  0  0  0  0  0  0  0
   34.4746  -20.2749   37.2533 C   0  0  0  0  0  0  0  0  0  0  0  0
   34.8442  -20.5505   38.4994 C   0  0  0  0  0  0  0  0  0  0  0  0
   34.0457  -21.4991   39.2598 C   0  0  0  0  0  0  0  0  0  0  0  0
   33.0033  -22.0128   38.6593 C   0  0  0  0  0  0  0  0  0  0  0  0
   32.3110  -23.0165   39.3528 F   0  0  0  0  0  0  0  0  0  0  0  0
   32.5759  -21.7290   37.3797 C   0  0  0  0  0  0  0  0  0  0  0  0
   34.4355  -21.4373   40.6116 N   0  0  0  0  0  0  0  0  0  0  0  0
   35.3343  -22.1185   40.7637 H   0  0  0  0  0  0  0  0  0  0  0  0
   33.9780  -20.5602   41.9279 S   0  0  0  0  0  0  0  0  0  0  0  0
   34.8902  -21.0715   43.3876 C   0  0  0  0  0  0  0  0  0  0  0  0
   32.5097  -20.5224   42.0888 O   0  0  0  0  0  0  0  0  0  0  0  0
   34.4791  -19.0994   41.6811 O   0  0  0  0  0  0  0  0  0  0  0  0
   33.8180  -17.4070   35.1200 C   0  0  0  0  0  0  0  0  0  0  0  0
   35.2593  -17.5943   34.8136 C   0  0  0  0  0  0  0  0  0  0  0  0
   35.8315  -18.3720   33.8410 C   0  0  0  0  0  0  0  0  0  0  0  0
   37.1766  -18.8459   33.9510 C   0  0  0  0  0  0  0  0  0  0  0  0
   37.8419  -18.4973   35.0346 C   0  0  0  0  0  0  0  0  0  0  0  0
   37.2836  -17.7206   36.0410 C   0  0  0  0  0  0  0  0  0  0  0  0
   36.0479  -17.2742   35.9489 C   0  0  0  0  0  0  0  0  0  0  0  0
   35.3419  -16.2605   36.7993 C   0  0  0  0  0  0  0  0  0  0  0  0
   35.1773  -14.9474   36.0028 C   0  0  0  0  0  0  0  0  0  0  0  0
   36.3981  -14.2269   35.6558 C   0  0  0  0  0  0  0  0  0  0  0  0
   37.2504  -13.9550   36.8722 C   0  0  0  0  0  0  0  0  0  0  0  0
   36.6046  -14.4957   38.1227 C   0  0  0  0  0  0  0  0  0  0  0  0
   36.1349  -15.9113   38.0439 C   0  0  0  0  0  0  0  0  0  0  0  0
   39.1592  -19.2198   35.4031 C   0  0  0  0  0  0  0  0  0  0  0  0
   39.8520  -18.7185   36.3650 F   0  0  0  0  0  0  0  0  0  0  0  0
   39.8459  -19.3919   34.2220 F   0  0  0  0  0  0  0  0  0  0  0  0
   38.7485  -20.5455   35.7472 F   0  0  0  0  0  0  0  0  0  0  0  0
  5  6  1  0  0  0
  6  1  1  0  0  0
  1  2  2  0  0  0
  1  3  1  0  0  0
  3 20  1  0  0  0
 20 21  1  0  0  0
 21 22  2  0  0  0
 22 23  1  0  0  0
 23 24  2  0  0  0
 24 33  1  0  0  0
 33 34  1  0  0  0
 33 35  1  0  0  0
 33 36  1  0  0  0
 24 25  1  0  0  0
 25 26  2  0  0  0
 26 27  1  0  0  0
 27 28  1  0  0  0
 28 29  1  0  0  0
 29 30  1  0  0  0
 30 31  1  0  0  0
 31 32  1  0  0  0
  6  7  1  0  0  0
  7  8  2  0  0  0
  8  9  1  0  0  0
  9 10  2  0  0  0
 10 14  1  0  0  0
 14 16  1  0  0  0
 16 17  1  0  0  0
 16 18  2  0  0  0
 16 19  2  0  0  0
 10 11  1  0  0  0
 11 12  1  0  0  0
 11 13  2  0  0  0
 26 21  1  0  0  0
 32 27  1  0  0  0
 13  7  1  0  0  0
  3  4  1  0  0  0
 14 15  1  0  0  0
M  END
> <minimizedAffinity>
-6.95951

> <CNNscore>
0.2218938470

> <CNNaffinity>
5.6525554657

> <CNN_VS>
1.2542673349

> <CNNaffinity_variance>
0.2869653106

$$$$
[H]c1c([H])c(C([H])(C(=O)N([H])C([H])([H])c2c([H])c([H])c(C(F)(F)F)c([H])c2C2([H])C([H])([H])C([H])([H])C([H])([H])C([H])([H])C2([H])[H])C([H])([H])[H])c([H])c(F)c1N([H])S(=O)(=O)C([H])([H])[H]


 36 38  0  0  0  0  0  0  0  0999 V2000
   37.2617  -18.2115   35.4595 C   0  0  0  0  0  0  0  0  0  0  0  0
   37.0990  -17.7713   34.4705 O   0  0  0  0  0  0  0  0  0  0  0  0
   37.9988  -19.0095   36.3428 N   0  0  0  0  0  0  0  0  0  0  0  0
   38.9647  -19.2184   35.3466 H   0  0  0  0  0  0  0  0  0  0  0  0
   35.1900  -18.8942   36.2381 C   0  0  0  0  0  0  0  0  0  0  0  0
   36.2204  -17.8396   36.7061 C   0  0  0  0  0  0  0  0  0  0  0  0
   35.7017  -16.5337   36.5091 C   0  0  0  0  0  0  0  0  0  0  0  0
   34.5245  -16.2740   35.9329 C   0  0  0  0  0  0  0  0  0  0  0  0
   33.9685  -15.0696   35.8578 C   0  0  0  0  0  0  0  0  0  0  0  0
   34.6970  -13.9398   36.4133 C   0  0  0  0  0  0  0  0  0  0  0  0
   35.8572  -14.1937   36.9617 C   0  0  0  0  0  0  0  0  0  0  0  0
   36.6075  -13.0861   37.3836 F   0  0  0  0  0  0  0  0  0  0  0  0
   36.4504  -15.4324   37.0811 C   0  0  0  0  0  0  0  0  0  0  0  0
   33.8308  -12.8315   36.4798 N   0  0  0  0  0  0  0  0  0  0  0  0
   33.7521  -12.3673   35.4438 H   0  0  0  0  0  0  0  0  0  0  0  0
   32.8680  -12.1597   37.6343 S   0  0  0  0  0  0  0  0  0  0  0  0
   33.2040  -10.4043   37.8075 C   0  0  0  0  0  0  0  0  0  0  0  0
   32.8915  -12.9289   38.8956 O   0  0  0  0  0  0  0  0  0  0  0  0
   31.4102  -12.1951   37.0689 O   0  0  0  0  0  0  0  0  0  0  0  0
   38.6617  -19.7238   37.1256 C   0  0  0  0  0  0  0  0  0  0  0  0
   38.2535  -20.6578   38.2060 C   0  0  0  0  0  0  0  0  0  0  0  0
   36.9884  -20.9892   38.6154 C   0  0  0  0  0  0  0  0  0  0  0  0
   36.7299  -21.4902   39.9300 C   0  0  0  0  0  0  0  0  0  0  0  0
   37.7693  -21.6193   40.7309 C   0  0  0  0  0  0  0  0  0  0  0  0
   39.0598  -21.2803   40.3468 C   0  0  0  0  0  0  0  0  0  0  0  0
   39.3110  -20.8227   39.1375 C   0  0  0  0  0  0  0  0  0  0  0  0
   40.6329  -20.6107   38.4616 C   0  0  0  0  0  0  0  0  0  0  0  0
   41.1819  -21.9683   37.9704 C   0  0  0  0  0  0  0  0  0  0  0  0
   41.5391  -22.9463   38.9931 C   0  0  0  0  0  0  0  0  0  0  0  0
   42.5000  -22.3697   40.0052 C   0  0  0  0  0  0  0  0  0  0  0  0
   42.8391  -20.9369   39.6807 C   0  0  0  0  0  0  0  0  0  0  0  0
   41.6722  -20.0449   39.4100 C   0  0  0  0  0  0  0  0  0  0  0  0
   37.5586  -21.8277   42.2492 C   0  0  0  0  0  0  0  0  0  0  0  0
   38.5904  -22.1608   42.9427 F   0  0  0  0  0  0  0  0  0  0  0  0
   36.4783  -22.6722   42.3745 F   0  0  0  0  0  0  0  0  0  0  0  0
   37.0557  -20.5709   42.7099 F   0  0  0  0  0  0  0  0  0  0  0  0
  5  6  1  0  0  0
  6  1  1  0  0  0
  1  2  2  0  0  0
  1  3  1  0  0  0
  3 20  1  0  0  0
 20 21  1  0  0  0
 21 22  2  0  0  0
 22 23  1  0  0  0
 23 24  2  0  0  0
 24 33  1  0  0  0
 33 34  1  0  0  0
 33 35  1  0  0  0
 33 36  1  0  0  0
 24 25  1  0  0  0
 25 26  2  0  0  0
 26 27  1  0  0  0
 27 28  1  0  0  0
 28 29  1  0  0  0
 29 30  1  0  0  0
 30 31  1  0  0  0
 31 32  1  0  0  0
  6  7  1  0  0  0
  7  8  2  0  0  0
  8  9  1  0  0  0
  9 10  2  0  0  0
 10 14  1  0  0  0
 14 16  1  0  0  0
 16 17  1  0  0  0
 16 18  2  0  0  0
 16 19  2  0  0  0
 10 11  1  0  0  0
 11 12  1  0  0  0
 11 13  2  0  0  0
 26 21  1  0  0  0
 32 27  1  0  0  0
 13  7  1  0  0  0
  3  4  1  0  0  0
 14 15  1  0  0  0
M  END
> <minimizedAffinity>
-7.13976

> <CNNscore>
0.2158976048

> <CNNaffinity>
5.9127984047

> <CNN_VS>
1.2765589952

> <CNNaffinity_variance>
0.0962953344

$$$$
[H]OC(=O)C([H])([H])N(C([H])([H])c1c([H])c([H])c([H])c(OC([H])([H])C([H])([H])c2nc(-c3c([H])c([H])c([H])c([H])c3[H])oc2C([H])([H])[H])c1[H])C([H])([H])c1c([H])c([H])c2c([H])c([H])c([H])c([H])c2c1[H]


 39 43  0  0  0  0  0  0  0  0999 V2000
   32.0451  -19.7264   35.7336 C   0  0  0  0  0  0  0  0  0  0  0  0
   31.8409  -18.9835   34.6054 C   0  0  0  0  0  0  0  0  0  0  0  0
   32.9190  -18.5125   33.8944 C   0  0  0  0  0  0  0  0  0  0  0  0
   34.2211  -18.7568   34.2681 C   0  0  0  0  0  0  0  0  0  0  0  0
   34.4617  -19.5017   35.3989 C   0  0  0  0  0  0  0  0  0  0  0  0
   33.3794  -19.9652   36.0993 C   0  0  0  0  0  0  0  0  0  0  0  0
   31.0404  -20.2270   36.4940 O   0  0  0  0  0  0  0  0  0  0  0  0
   30.3046  -21.3724   36.4616 C   0  0  0  0  0  0  0  0  0  0  0  0
   28.8643  -21.2776   36.0810 C   0  0  0  0  0  0  0  0  0  0  0  0
   26.9791  -23.5022   37.2409 C   0  0  0  0  0  0  0  0  0  0  0  0
   27.1454  -22.1534   37.8122 C   0  0  0  0  0  0  0  0  0  0  0  0
   26.5508  -21.6622   38.8761 O   0  0  0  0  0  0  0  0  0  0  0  0
   26.9425  -20.4301   39.0854 C   0  0  0  0  0  0  0  0  0  0  0  0
   27.8218  -20.1337   38.1107 N   0  0  0  0  0  0  0  0  0  0  0  0
   27.9818  -21.1751   37.2922 C   0  0  0  0  0  0  0  0  0  0  0  0
   26.5222  -19.5379   40.1571 C   0  0  0  0  0  0  0  0  0  0  0  0
   27.3328  -18.5012   40.5700 C   0  0  0  0  0  0  0  0  0  0  0  0
   26.9541  -17.6361   41.5931 C   0  0  0  0  0  0  0  0  0  0  0  0
   25.7403  -17.8099   42.2175 C   0  0  0  0  0  0  0  0  0  0  0  0
   24.9202  -18.8289   41.8266 C   0  0  0  0  0  0  0  0  0  0  0  0
   25.3140  -19.6894   40.7976 C   0  0  0  0  0  0  0  0  0  0  0  0
   35.8468  -19.7621   35.8067 C   0  0  0  0  0  0  0  0  0  0  0  0
   36.3294  -19.0087   36.9138 N   0  0  0  0  0  0  0  0  0  0  0  0
   36.7760  -19.8228   37.9870 C   0  0  0  0  0  0  0  0  0  0  0  0
   35.7231  -20.4961   38.7588 C   0  0  0  0  0  0  0  0  0  0  0  0
   35.4442  -21.7067   38.7337 O   0  0  0  0  0  0  0  0  0  0  0  0
   34.9399  -19.7030   39.6202 O   0  0  0  0  0  0  0  0  0  0  0  0
   33.9753  -19.5187   39.3836 H   0  0  0  0  0  0  0  0  0  0  0  0
   37.1895  -17.9247   36.5431 C   0  0  0  0  0  0  0  0  0  0  0  0
   36.6765  -16.5831   36.8038 C   0  0  0  0  0  0  0  0  0  0  0  0
   37.3168  -15.6011   37.5238 C   0  0  0  0  0  0  0  0  0  0  0  0
   36.7398  -14.3559   37.7208 C   0  0  0  0  0  0  0  0  0  0  0  0
   35.5015  -14.0385   37.2080 C   0  0  0  0  0  0  0  0  0  0  0  0
   34.9588  -12.7897   37.4249 C   0  0  0  0  0  0  0  0  0  0  0  0
   33.7179  -12.4630   36.9159 C   0  0  0  0  0  0  0  0  0  0  0  0
   33.0502  -13.4252   36.1901 C   0  0  0  0  0  0  0  0  0  0  0  0
   33.6018  -14.6888   35.9716 C   0  0  0  0  0  0  0  0  0  0  0  0
   34.8452  -15.0124   36.4829 C   0  0  0  0  0  0  0  0  0  0  0  0
   35.4236  -16.2501   36.2896 C   0  0  0  0  0  0  0  0  0  0  0  0
 10 11  1  0  0  0
 11 12  1  0  0  0
 12 13  1  0  0  0
 13 16  1  0  0  0
 16 17  2  0  0  0
 17 18  1  0  0  0
 18 19  2  0  0  0
 19 20  1  0  0  0
 20 21  2  0  0  0
 13 14  2  0  0  0
 14 15  1  0  0  0
 15  9  1  0  0  0
  9  8  1  0  0  0
  8  7  1  0  0  0
  7  1  1  0  0  0
  1  2  2  0  0  0
  2  3  1  0  0  0
  3  4  2  0  0  0
  4  5  1  0  0  0
  5 22  1  0  0  0
 22 23  1  0  0  0
 23 24  1  0  0  0
 24 25  1  0  0  0
 25 26  2  0  0  0
 25 27  1  0  0  0
 23 29  1  0  0  0
 29 30  1  0  0  0
 30 31  2  0  0  0
 31 32  1  0  0  0
 32 33  2  0  0  0
 33 34  1  0  0  0
 34 35  2  0  0  0
 35 36  1  0  0  0
 36 37  2  0  0  0
 37 38  1  0  0  0
 38 39  2  0  0  0
  5  6  2  0  0  0
 15 11  2  0  0  0
  6  1  1  0  0  0
 21 16  1  0  0  0
 39 30  1  0  0  0
 38 33  1  0  0  0
 27 28  1  0  0  0
M  END
> <minimizedAffinity>
-7.62753

> <CNNscore>
0.4702581465

> <CNNaffinity>
5.6059784889

> <CNN_VS>
2.6362571716

> <CNNaffinity_variance>
0.5771028996

$$$$
[H]OC(=O)C([H])([H])N(C([H])([H])c1c([H])c([H])c([H])c(OC([H])([H])C([H])([H])c2nc(-c3c([H])c([H])c([H])c([H])c3[H])oc2C([H])([H])[H])c1[H])C([H])([H])c1c([H])c([H])c2c([H])c([H])c([H])c([H])c2c1[H]


 39 43  0  0  0  0  0  0  0  0999 V2000
   34.2990  -14.0541   37.2927 C   0  0  0  0  0  0  0  0  0  0  0  0
   35.6115  -14.0017   37.6687 C   0  0  0  0  0  0  0  0  0  0  0  0
   36.4936  -14.9456   37.1993 C   0  0  0  0  0  0  0  0  0  0  0  0
   36.1149  -15.9619   36.3515 C   0  0  0  0  0  0  0  0  0  0  0  0
   34.8010  -16.0432   35.9534 C   0  0  0  0  0  0  0  0  0  0  0  0
   33.9312  -15.0972   36.4280 C   0  0  0  0  0  0  0  0  0  0  0  0
   33.3633  -13.1661   37.7100 O   0  0  0  0  0  0  0  0  0  0  0  0
   32.4820  -13.1318   38.7475 C   0  0  0  0  0  0  0  0  0  0  0  0
   31.1628  -12.4668   38.5336 C   0  0  0  0  0  0  0  0  0  0  0  0
   29.0096  -10.1860   38.4321 C   0  0  0  0  0  0  0  0  0  0  0  0
   30.3827  -10.0755   37.9072 C   0  0  0  0  0  0  0  0  0  0  0  0
   30.9286   -9.0328   37.3229 O   0  0  0  0  0  0  0  0  0  0  0  0
   32.1664   -9.2981   36.9875 C   0  0  0  0  0  0  0  0  0  0  0  0
   32.4096  -10.5628   37.3780 N   0  0  0  0  0  0  0  0  0  0  0  0
   31.3290  -11.0900   37.9563 C   0  0  0  0  0  0  0  0  0  0  0  0
   33.1123   -8.4126   36.3222 C   0  0  0  0  0  0  0  0  0  0  0  0
   32.6687   -7.3644   35.5433 C   0  0  0  0  0  0  0  0  0  0  0  0
   33.5529   -6.5054   34.8961 C   0  0  0  0  0  0  0  0  0  0  0  0
   34.9090   -6.6972   35.0291 C   0  0  0  0  0  0  0  0  0  0  0  0
   35.3727   -7.7279   35.7948 C   0  0  0  0  0  0  0  0  0  0  0  0
   34.4726   -8.5822   36.4388 C   0  0  0  0  0  0  0  0  0  0  0  0
   34.3883  -17.1265   35.0540 C   0  0  0  0  0  0  0  0  0  0  0  0
   34.8144  -18.4372   35.4102 N   0  0  0  0  0  0  0  0  0  0  0  0
   33.7907  -19.2068   36.0216 C   0  0  0  0  0  0  0  0  0  0  0  0
   34.2119  -20.4956   36.5865 C   0  0  0  0  0  0  0  0  0  0  0  0
   34.8829  -20.6696   37.6177 O   0  0  0  0  0  0  0  0  0  0  0  0
   33.8242  -21.6639   35.9014 O   0  0  0  0  0  0  0  0  0  0  0  0
   34.5213  -22.2028   35.4073 H   0  0  0  0  0  0  0  0  0  0  0  0
   35.5739  -19.0945   34.3888 C   0  0  0  0  0  0  0  0  0  0  0  0
   37.0250  -19.0491   34.5415 C   0  0  0  0  0  0  0  0  0  0  0  0
   37.9317  -18.7655   33.5464 C   0  0  0  0  0  0  0  0  0  0  0  0
   39.2960  -18.7534   33.7929 C   0  0  0  0  0  0  0  0  0  0  0  0
   39.8122  -19.0230   35.0410 C   0  0  0  0  0  0  0  0  0  0  0  0
   41.1752  -19.0024   35.2487 C   0  0  0  0  0  0  0  0  0  0  0  0
   41.7018  -19.2725   36.4959 C   0  0  0  0  0  0  0  0  0  0  0  0
   40.8197  -19.5608   37.5143 C   0  0  0  0  0  0  0  0  0  0  0  0
   39.4401  -19.5808   37.3018 C   0  0  0  0  0  0  0  0  0  0  0  0
   38.9163  -19.3095   36.0511 C   0  0  0  0  0  0  0  0  0  0  0  0
   37.5595  -19.3203   35.8008 C   0  0  0  0  0  0  0  0  0  0  0  0
 10 11  1  0  0  0
 11 12  1  0  0  0
 12 13  1  0  0  0
 13 16  1  0  0  0
 16 17  2  0  0  0
 17 18  1  0  0  0
 18 19  2  0  0  0
 19 20  1  0  0  0
 20 21  2  0  0  0
 13 14  2  0  0  0
 14 15  1  0  0  0
 15  9  1  0  0  0
  9  8  1  0  0  0
  8  7  1  0  0  0
  7  1  1  0  0  0
  1  2  2  0  0  0
  2  3  1  0  0  0
  3  4  2  0  0  0
  4  5  1  0  0  0
  5 22  1  0  0  0
 22 23  1  0  0  0
 23 24  1  0  0  0
 24 25  1  0  0  0
 25 26  2  0  0  0
 25 27  1  0  0  0
 23 29  1  0  0  0
 29 30  1  0  0  0
 30 31  2  0  0  0
 31 32  1  0  0  0
 32 33  2  0  0  0
 33 34  1  0  0  0
 34 35  2  0  0  0
 35 36  1  0  0  0
 36 37  2  0  0  0
 37 38  1  0  0  0
 38 39  2  0  0  0
  5  6  2  0  0  0
 15 11  2  0  0  0
  6  1  1  0  0  0
 21 16  1  0  0  0
 39 30  1  0  0  0
 38 33  1  0  0  0
 27 28  1  0  0  0
M  END
> <minimizedAffinity>
-8.72218

> <CNNscore>
0.3854883313

> <CNNaffinity>
6.6688179970

> <CNN_VS>
2.5707514286

> <CNNaffinity_variance>
0.7231291533

$$$$
[H]OC(=O)C([H])([H])N(C([H])([H])c1c([H])c([H])c([H])c(OC([H])([H])C([H])([H])c2nc(-c3c([H])c([H])c([H])c([H])c3[H])oc2C([H])([H])[H])c1[H])C([H])([H])c1c([H])c([H])c2c([H])c([H])c([H])c([H])c2c1[H]


 39 43  0  0  0  0  0  0  0  0999 V2000
   37.4887  -18.6674   35.4009 C   0  0  0  0  0  0  0  0  0  0  0  0
   37.6606  -18.1905   34.1322 C   0  0  0  0  0  0  0  0  0  0  0  0
   38.7468  -18.5947   33.3930 C   0  0  0  0  0  0  0  0  0  0  0  0
   39.6895  -19.4743   33.8751 C   0  0  0  0  0  0  0  0  0  0  0  0
   39.5460  -19.9736   35.1485 C   0  0  0  0  0  0  0  0  0  0  0  0
   38.4599  -19.5632   35.8756 C   0  0  0  0  0  0  0  0  0  0  0  0
   36.4488  -18.3196   36.1983 O   0  0  0  0  0  0  0  0  0  0  0  0
   36.0380  -17.1536   36.7693 C   0  0  0  0  0  0  0  0  0  0  0  0
   35.9702  -15.9321   35.9138 C   0  0  0  0  0  0  0  0  0  0  0  0
   37.3747  -13.5423   37.3850 C   0  0  0  0  0  0  0  0  0  0  0  0
   35.9164  -13.7336   37.2858 C   0  0  0  0  0  0  0  0  0  0  0  0
   34.9778  -12.9589   37.7813 O   0  0  0  0  0  0  0  0  0  0  0  0
   33.7945  -13.4421   37.4961 C   0  0  0  0  0  0  0  0  0  0  0  0
   33.9978  -14.5698   36.7903 N   0  0  0  0  0  0  0  0  0  0  0  0
   35.3035  -14.7943   36.6329 C   0  0  0  0  0  0  0  0  0  0  0  0
   32.4993  -12.8843   37.8607 C   0  0  0  0  0  0  0  0  0  0  0  0
   31.8671  -11.9746   37.0391 C   0  0  0  0  0  0  0  0  0  0  0  0
   30.6299  -11.4262   37.3665 C   0  0  0  0  0  0  0  0  0  0  0  0
   30.0108  -11.7936   38.5391 C   0  0  0  0  0  0  0  0  0  0  0  0
   30.6166  -12.6925   39.3689 C   0  0  0  0  0  0  0  0  0  0  0  0
   31.8590  -13.2349   39.0268 C   0  0  0  0  0  0  0  0  0  0  0  0
   40.5493  -20.9077   35.6715 C   0  0  0  0  0  0  0  0  0  0  0  0
   41.7651  -20.3309   36.1354 N   0  0  0  0  0  0  0  0  0  0  0  0
   42.8044  -20.3750   35.1700 C   0  0  0  0  0  0  0  0  0  0  0  0
   44.1727  -20.3356   35.7027 C   0  0  0  0  0  0  0  0  0  0  0  0
   44.7900  -21.2753   36.2318 O   0  0  0  0  0  0  0  0  0  0  0  0
   44.8708  -19.1153   35.6129 O   0  0  0  0  0  0  0  0  0  0  0  0
   45.0467  -18.5823   36.4527 H   0  0  0  0  0  0  0  0  0  0  0  0
   41.5887  -19.0831   36.8168 C   0  0  0  0  0  0  0  0  0  0  0  0
   41.9404  -19.0727   38.2335 C   0  0  0  0  0  0  0  0  0  0  0  0
   43.0427  -18.4623   38.7859 C   0  0  0  0  0  0  0  0  0  0  0  0
   43.2922  -18.5157   40.1487 C   0  0  0  0  0  0  0  0  0  0  0  0
   42.4532  -19.1791   41.0165 C   0  0  0  0  0  0  0  0  0  0  0  0
   42.7338  -19.2115   42.3661 C   0  0  0  0  0  0  0  0  0  0  0  0
   41.8994  -19.8750   43.2432 C   0  0  0  0  0  0  0  0  0  0  0  0
   40.7866  -20.4973   42.7211 C   0  0  0  0  0  0  0  0  0  0  0  0
   40.5044  -20.4630   41.3544 C   0  0  0  0  0  0  0  0  0  0  0  0
   41.3424  -19.7972   40.4789 C   0  0  0  0  0  0  0  0  0  0  0  0
   41.0985  -19.7412   39.1219 C   0  0  0  0  0  0  0  0  0  0  0  0
 10 11  1  0  0  0
 11 12  1  0  0  0
 12 13  1  0  0  0
 13 16  1  0  0  0
 16 17  2  0  0  0
 17 18  1  0  0  0
 18 19  2  0  0  0
 19 20  1  0  0  0
 20 21  2  0  0  0
 13 14  2  0  0  0
 14 15  1  0  0  0
 15  9  1  0  0  0
  9  8  1  0  0  0
  8  7  1  0  0  0
  7  1  1  0  0  0
  1  2  2  0  0  0
  2  3  1  0  0  0
  3  4  2  0  0  0
  4  5  1  0  0  0
  5 22  1  0  0  0
 22 23  1  0  0  0
 23 24  1  0  0  0
 24 25  1  0  0  0
 25 26  2  0  0  0
 25 27  1  0  0  0
 23 29  1  0  0  0
 29 30  1  0  0  0
 30 31  2  0  0  0
 31 32  1  0  0  0
 32 33  2  0  0  0
 33 34  1  0  0  0
 34 35  2  0  0  0
 35 36  1  0  0  0
 36 37  2  0  0  0
 37 38  1  0  0  0
 38 39  2  0  0  0
  5  6  2  0  0  0
 15 11  2  0  0  0
  6  1  1  0  0  0
 21 16  1  0  0  0
 39 30  1  0  0  0
 38 33  1  0  0  0
 27 28  1  0  0  0
M  END
> <minimizedAffinity>
-7.67767

> <CNNscore>
0.3109148443

> <CNNaffinity>
5.9091629982

> <CNN_VS>
1.8372465372

> <CNNaffinity_variance>
0.1743508875

$$$$
[H]OC(=O)C([H])([H])N(C([H])([H])c1c([H])c([H])c([H])c(OC([H])([H])C([H])([H])c2nc(-c3c([H])c([H])c([H])c([H])c3[H])oc2C([H])([H])[H])c1[H])C([H])([H])c1c([H])c([H])c2c([H])c([H])c([H])c([H])c2c1[H]


 39 43  0  0  0  0  0  0  0  0999 V2000
   34.8882  -14.1571   36.4685 C   0  0  0  0  0  0  0  0  0  0  0  0
   35.9146  -13.3604   36.8906 C   0  0  0  0  0  0  0  0  0  0  0  0
   37.0616  -13.9321   37.3878 C   0  0  0  0  0  0  0  0  0  0  0  0
   37.2331  -15.2946   37.4836 C   0  0  0  0  0  0  0  0  0  0  0  0
   36.2191  -16.1251   37.0670 C   0  0  0  0  0  0  0  0  0  0  0  0
   35.0809  -15.5438   36.5738 C   0  0  0  0  0  0  0  0  0  0  0  0
   33.7233  -13.6771   35.9678 O   0  0  0  0  0  0  0  0  0  0  0  0
   32.6587  -13.0184   36.5036 C   0  0  0  0  0  0  0  0  0  0  0  0
   32.9249  -11.8993   37.4550 C   0  0  0  0  0  0  0  0  0  0  0  0
   32.6439   -8.7854   37.1841 C   0  0  0  0  0  0  0  0  0  0  0  0
   31.5574   -9.7007   37.5777 C   0  0  0  0  0  0  0  0  0  0  0  0
   30.3178   -9.3813   37.8746 O   0  0  0  0  0  0  0  0  0  0  0  0
   29.6335  -10.4560   38.1777 C   0  0  0  0  0  0  0  0  0  0  0  0
   30.4797  -11.4966   38.0665 N   0  0  0  0  0  0  0  0  0  0  0  0
   31.6907  -11.0774   37.6952 C   0  0  0  0  0  0  0  0  0  0  0  0
   28.2307  -10.5330   38.5619 C   0  0  0  0  0  0  0  0  0  0  0  0
   27.4298  -11.5587   38.1050 C   0  0  0  0  0  0  0  0  0  0  0  0
   26.0860  -11.6530   38.4568 C   0  0  0  0  0  0  0  0  0  0  0  0
   25.5298  -10.7029   39.2822 C   0  0  0  0  0  0  0  0  0  0  0  0
   26.3022   -9.6779   39.7476 C   0  0  0  0  0  0  0  0  0  0  0  0
   27.6501   -9.5964   39.3858 C   0  0  0  0  0  0  0  0  0  0  0  0
   36.3922  -17.5783   37.1706 C   0  0  0  0  0  0  0  0  0  0  0  0
   36.4909  -18.2898   35.9416 N   0  0  0  0  0  0  0  0  0  0  0  0
   37.8103  -18.3161   35.4197 C   0  0  0  0  0  0  0  0  0  0  0  0
   37.9196  -18.5296   33.9705 C   0  0  0  0  0  0  0  0  0  0  0  0
   38.6970  -19.3073   33.3919 O   0  0  0  0  0  0  0  0  0  0  0  0
   37.0631  -17.7841   33.1369 O   0  0  0  0  0  0  0  0  0  0  0  0
   37.4472  -17.0433   32.5675 H   0  0  0  0  0  0  0  0  0  0  0  0
   35.7855  -19.5367   35.9385 C   0  0  0  0  0  0  0  0  0  0  0  0
   34.3632  -19.4662   35.6175 C   0  0  0  0  0  0  0  0  0  0  0  0
   33.7750  -18.5698   34.7554 C   0  0  0  0  0  0  0  0  0  0  0  0
   32.4084  -18.5811   34.5218 C   0  0  0  0  0  0  0  0  0  0  0  0
   31.5725  -19.4863   35.1374 C   0  0  0  0  0  0  0  0  0  0  0  0
   30.2179  -19.4672   34.8810 C   0  0  0  0  0  0  0  0  0  0  0  0
   29.3722  -20.3697   35.4942 C   0  0  0  0  0  0  0  0  0  0  0  0
   29.9305  -21.2809   36.3640 C   0  0  0  0  0  0  0  0  0  0  0  0
   31.3024  -21.2985   36.6218 C   0  0  0  0  0  0  0  0  0  0  0  0
   32.1464  -20.3930   36.0055 C   0  0  0  0  0  0  0  0  0  0  0  0
   33.5069  -20.3777   36.2347 C   0  0  0  0  0  0  0  0  0  0  0  0
 10 11  1  0  0  0
 11 12  1  0  0  0
 12 13  1  0  0  0
 13 16  1  0  0  0
 16 17  2  0  0  0
 17 18  1  0  0  0
 18 19  2  0  0  0
 19 20  1  0  0  0
 20 21  2  0  0  0
 13 14  2  0  0  0
 14 15  1  0  0  0
 15  9  1  0  0  0
  9  8  1  0  0  0
  8  7  1  0  0  0
  7  1  1  0  0  0
  1  2  2  0  0  0
  2  3  1  0  0  0
  3  4  2  0  0  0
  4  5  1  0  0  0
  5 22  1  0  0  0
 22 23  1  0  0  0
 23 24  1  0  0  0
 24 25  1  0  0  0
 25 26  2  0  0  0
 25 27  1  0  0  0
 23 29  1  0  0  0
 29 30  1  0  0  0
 30 31  2  0  0  0
 31 32  1  0  0  0
 32 33  2  0  0  0
 33 34  1  0  0  0
 34 35  2  0  0  0
 35 36  1  0  0  0
 36 37  2  0  0  0
 37 38  1  0  0  0
 38 39  2  0  0  0
  5  6  2  0  0  0
 15 11  2  0  0  0
  6  1  1  0  0  0
 21 16  1  0  0  0
 39 30  1  0  0  0
 38 33  1  0  0  0
 27 28  1  0  0  0
M  END
> <minimizedAffinity>
-9.69182

> <CNNscore>
0.3038109541

> <CNNaffinity>
6.4897413254

> <CNN_VS>
1.9716545343

> <CNNaffinity_variance>
0.2877986431

$$$$
[H]OC(=O)C([H])([H])N(C([H])([H])c1c([H])c([H])c([H])c(OC([H])([H])C([H])([H])c2nc(-c3c([H])c([H])c([H])c([H])c3[H])oc2C([H])([H])[H])c1[H])C([H])([H])c1c([H])c([H])c2c([H])c([H])c([H])c([H])c2c1[H]


 39 43  0  0  0  0  0  0  0  0999 V2000
   35.6136  -18.4664   35.2685 C   0  0  0  0  0  0  0  0  0  0  0  0
   36.7637  -18.4411   34.5314 C   0  0  0  0  0  0  0  0  0  0  0  0
   37.7415  -19.3796   34.7608 C   0  0  0  0  0  0  0  0  0  0  0  0
   37.6186  -20.3648   35.7143 C   0  0  0  0  0  0  0  0  0  0  0  0
   36.4731  -20.4187   36.4735 C   0  0  0  0  0  0  0  0  0  0  0  0
   35.5060  -19.4780   36.2361 C   0  0  0  0  0  0  0  0  0  0  0  0
   34.6012  -17.5787   35.1094 O   0  0  0  0  0  0  0  0  0  0  0  0
   34.2895  -16.3812   35.6779 C   0  0  0  0  0  0  0  0  0  0  0  0
   35.2258  -15.8150   36.6934 C   0  0  0  0  0  0  0  0  0  0  0  0
   37.3321  -13.5561   37.2496 C   0  0  0  0  0  0  0  0  0  0  0  0
   35.8728  -13.3551   37.1925 C   0  0  0  0  0  0  0  0  0  0  0  0
   35.2188  -12.2276   37.3591 O   0  0  0  0  0  0  0  0  0  0  0  0
   33.9305  -12.4292   37.2381 C   0  0  0  0  0  0  0  0  0  0  0  0
   33.7671  -13.7407   36.9840 N   0  0  0  0  0  0  0  0  0  0  0  0
   34.9479  -14.3606   36.9459 C   0  0  0  0  0  0  0  0  0  0  0  0
   32.8657  -11.4419   37.3515 C   0  0  0  0  0  0  0  0  0  0  0  0
   33.1569  -10.0954   37.4176 C   0  0  0  0  0  0  0  0  0  0  0  0
   32.1570   -9.1328   37.5279 C   0  0  0  0  0  0  0  0  0  0  0  0
   30.8382   -9.5229   37.5735 C   0  0  0  0  0  0  0  0  0  0  0  0
   30.5246  -10.8500   37.5097 C   0  0  0  0  0  0  0  0  0  0  0  0
   31.5395  -11.8051   37.3989 C   0  0  0  0  0  0  0  0  0  0  0  0
   36.3367  -21.4627   37.4953 C   0  0  0  0  0  0  0  0  0  0  0  0
   36.8953  -21.1711   38.7717 N   0  0  0  0  0  0  0  0  0  0  0  0
   35.9188  -21.0797   39.7974 C   0  0  0  0  0  0  0  0  0  0  0  0
   34.5727  -21.5475   39.4411 C   0  0  0  0  0  0  0  0  0  0  0  0
   33.6392  -20.8552   39.0015 O   0  0  0  0  0  0  0  0  0  0  0  0
   34.2947  -22.9182   39.6093 O   0  0  0  0  0  0  0  0  0  0  0  0
   33.6734  -23.2104   40.3502 H   0  0  0  0  0  0  0  0  0  0  0  0
   38.0641  -21.9402   39.0793 C   0  0  0  0  0  0  0  0  0  0  0  0
   39.3031  -21.1849   39.2386 C   0  0  0  0  0  0  0  0  0  0  0  0
   40.1158  -20.7454   38.2192 C   0  0  0  0  0  0  0  0  0  0  0  0
   41.2801  -20.0378   38.4762 C   0  0  0  0  0  0  0  0  0  0  0  0
   41.6816  -19.7390   39.7594 C   0  0  0  0  0  0  0  0  0  0  0  0
   42.8462  -19.0336   39.9767 C   0  0  0  0  0  0  0  0  0  0  0  0
   43.2572  -18.7307   41.2593 C   0  0  0  0  0  0  0  0  0  0  0  0
   42.4651  -19.1573   42.3028 C   0  0  0  0  0  0  0  0  0  0  0  0
   41.2862  -19.8711   42.0804 C   0  0  0  0  0  0  0  0  0  0  0  0
   40.8776  -20.1725   40.7942 C   0  0  0  0  0  0  0  0  0  0  0  0
   39.7199  -20.8764   40.5332 C   0  0  0  0  0  0  0  0  0  0  0  0
 10 11  1  0  0  0
 11 12  1  0  0  0
 12 13  1  0  0  0
 13 16  1  0  0  0
 16 17  2  0  0  0
 17 18  1  0  0  0
 18 19  2  0  0  0
 19 20  1  0  0  0
 20 21  2  0  0  0
 13 14  2  0  0  0
 14 15  1  0  0  0
 15  9  1  0  0  0
  9  8  1  0  0  0
  8  7  1  0  0  0
  7  1  1  0  0  0
  1  2  2  0  0  0
  2  3  1  0  0  0
  3  4  2  0  0  0
  4  5  1  0  0  0
  5 22  1  0  0  0
 22 23  1  0  0  0
 23 24  1  0  0  0
 24 25  1  0  0  0
 25 26  2  0  0  0
 25 27  1  0  0  0
 23 29  1  0  0  0
 29 30  1  0  0  0
 30 31  2  0  0  0
 31 32  1  0  0  0
 32 33  2  0  0  0
 33 34  1  0  0  0
 34 35  2  0  0  0
 35 36  1  0  0  0
 36 37  2  0  0  0
 37 38  1  0  0  0
 38 39  2  0  0  0
  5  6  2  0  0  0
 15 11  2  0  0  0
  6  1  1  0  0  0
 21 16  1  0  0  0
 39 30  1  0  0  0
 38 33  1  0  0  0
 27 28  1  0  0  0
M  END
> <minimizedAffinity>
-7.73069

> <CNNscore>
0.2969702184

> <CNNaffinity>
5.9306583405

> <CNN_VS>
1.7612289190

> <CNNaffinity_variance>
0.2275181264

$$$$
[H]OC(=O)C([H])([H])N(C([H])([H])c1c([H])c([H])c([H])c(OC([H])([H])C([H])([H])c2nc(-c3c([H])c([H])c([H])c([H])c3[H])oc2C([H])([H])[H])c1[H])C([H])([H])c1c([H])c([H])c2c([H])c([H])c([H])c([H])c2c1[H]


 39 43  0  0  0  0  0  0  0  0999 V2000
   34.1974  -14.0905   37.1570 C   0  0  0  0  0  0  0  0  0  0  0  0
   35.3307  -13.4102   37.5023 C   0  0  0  0  0  0  0  0  0  0  0  0
   36.5577  -13.8788   37.0970 C   0  0  0  0  0  0  0  0  0  0  0  0
   36.7065  -15.0219   36.3445 C   0  0  0  0  0  0  0  0  0  0  0  0
   35.5856  -15.7303   35.9795 C   0  0  0  0  0  0  0  0  0  0  0  0
   34.3685  -15.2537   36.3896 C   0  0  0  0  0  0  0  0  0  0  0  0
   32.9496  -13.7002   37.5160 O   0  0  0  0  0  0  0  0  0  0  0  0
   32.4049  -13.1891   38.6546 C   0  0  0  0  0  0  0  0  0  0  0  0
   31.1105  -12.4527   38.5510 C   0  0  0  0  0  0  0  0  0  0  0  0
   29.0585  -10.0796   38.6270 C   0  0  0  0  0  0  0  0  0  0  0  0
   30.4078  -10.0113   38.0371 C   0  0  0  0  0  0  0  0  0  0  0  0
   30.9701   -8.9745   37.4577 O   0  0  0  0  0  0  0  0  0  0  0  0
   32.1770   -9.2818   37.0524 C   0  0  0  0  0  0  0  0  0  0  0  0
   32.3826  -10.5677   37.3919 N   0  0  0  0  0  0  0  0  0  0  0  0
   31.3093  -11.0665   38.0078 C   0  0  0  0  0  0  0  0  0  0  0  0
   33.1275   -8.4167   36.3672 C   0  0  0  0  0  0  0  0  0  0  0  0
   32.6900   -7.3659   35.5883 C   0  0  0  0  0  0  0  0  0  0  0  0
   33.5787   -6.5262   34.9223 C   0  0  0  0  0  0  0  0  0  0  0  0
   34.9332   -6.7402   35.0362 C   0  0  0  0  0  0  0  0  0  0  0  0
   35.3909   -7.7737   35.8017 C   0  0  0  0  0  0  0  0  0  0  0  0
   34.4864   -8.6085   36.4646 C   0  0  0  0  0  0  0  0  0  0  0  0
   35.7361  -16.9525   35.1819 C   0  0  0  0  0  0  0  0  0  0  0  0
   36.2171  -18.1001   35.8730 N   0  0  0  0  0  0  0  0  0  0  0  0
   35.2382  -19.1189   36.0063 C   0  0  0  0  0  0  0  0  0  0  0  0
   34.3458  -19.3016   34.8540 C   0  0  0  0  0  0  0  0  0  0  0  0
   33.1284  -19.0560   34.8123 O   0  0  0  0  0  0  0  0  0  0  0  0
   34.9115  -19.8066   33.6668 O   0  0  0  0  0  0  0  0  0  0  0  0
   34.6890  -20.7471   33.3730 H   0  0  0  0  0  0  0  0  0  0  0  0
   37.5178  -18.5257   35.4494 C   0  0  0  0  0  0  0  0  0  0  0  0
   38.3394  -19.1782   36.4644 C   0  0  0  0  0  0  0  0  0  0  0  0
   37.8975  -20.0896   37.3954 C   0  0  0  0  0  0  0  0  0  0  0  0
   38.7599  -20.6500   38.3251 C   0  0  0  0  0  0  0  0  0  0  0  0
   40.0978  -20.3252   38.3647 C   0  0  0  0  0  0  0  0  0  0  0  0
   40.9256  -20.9024   39.3043 C   0  0  0  0  0  0  0  0  0  0  0  0
   42.2676  -20.5820   39.3524 C   0  0  0  0  0  0  0  0  0  0  0  0
   42.7415  -19.6715   38.4333 C   0  0  0  0  0  0  0  0  0  0  0  0
   41.9016  -19.0886   37.4828 C   0  0  0  0  0  0  0  0  0  0  0  0
   40.5580  -19.4122   37.4376 C   0  0  0  0  0  0  0  0  0  0  0  0
   39.6956  -18.8572   36.5143 C   0  0  0  0  0  0  0  0  0  0  0  0
 10 11  1  0  0  0
 11 12  1  0  0  0
 12 13  1  0  0  0
 13 16  1  0  0  0
 16 17  2  0  0  0
 17 18  1  0  0  0
 18 19  2  0  0  0
 19 20  1  0  0  0
 20 21  2  0  0  0
 13 14  2  0  0  0
 14 15  1  0  0  0
 15  9  1  0  0  0
  9  8  1  0  0  0
  8  7  1  0  0  0
  7  1  1  0  0  0
  1  2  2  0  0  0
  2  3  1  0  0  0
  3  4  2  0  0  0
  4  5  1  0  0  0
  5 22  1  0  0  0
 22 23  1  0  0  0
 23 24  1  0  0  0
 24 25  1  0  0  0
 25 26  2  0  0  0
 25 27  1  0  0  0
 23 29  1  0  0  0
 29 30  1  0  0  0
 30 31  2  0  0  0
 31 32  1  0  0  0
 32 33  2  0  0  0
 33 34  1  0  0  0
 34 35  2  0  0  0
 35 36  1  0  0  0
 36 37  2  0  0  0
 37 38  1  0  0  0
 38 39  2  0  0  0
  5  6  2  0  0  0
 15 11  2  0  0  0
  6  1  1  0  0  0
 21 16  1  0  0  0
 39 30  1  0  0  0
 38 33  1  0  0  0
 27 28  1  0  0  0
M  END
> <minimizedAffinity>
-8.80821

> <CNNscore>
0.2953430712

> <CNNaffinity>
6.4673986435

> <CNN_VS>
1.9101014137

> <CNNaffinity_variance>
0.7499778271

$$$$
[H]OC(=O)C([H])([H])N(C([H])([H])c1c([H])c([H])c([H])c(OC([H])([H])C([H])([H])c2nc(-c3c([H])c([H])c([H])c([H])c3[H])oc2C([H])([H])[H])c1[H])C([H])([H])c1c([H])c([H])c2c([H])c([H])c([H])c([H])c2c1[H]


 39 43  0  0  0  0  0  0  0  0999 V2000
   37.2949  -21.8786   38.4852 C   0  0  0  0  0  0  0  0  0  0  0  0
   37.5143  -23.0978   37.9091 C   0  0  0  0  0  0  0  0  0  0  0  0
   38.0057  -23.1679   36.6273 C   0  0  0  0  0  0  0  0  0  0  0  0
   38.2950  -22.0495   35.8788 C   0  0  0  0  0  0  0  0  0  0  0  0
   38.0858  -20.8065   36.4291 C   0  0  0  0  0  0  0  0  0  0  0  0
   37.5955  -20.7494   37.7070 C   0  0  0  0  0  0  0  0  0  0  0  0
   36.8109  -21.7190   39.7416 O   0  0  0  0  0  0  0  0  0  0  0  0
   37.0910  -22.2874   40.9469 C   0  0  0  0  0  0  0  0  0  0  0  0
   37.1332  -21.4071   42.1517 C   0  0  0  0  0  0  0  0  0  0  0  0
   38.2591  -20.1978   44.8198 C   0  0  0  0  0  0  0  0  0  0  0  0
   39.0206  -20.3297   43.5644 C   0  0  0  0  0  0  0  0  0  0  0  0
   40.2676  -19.9747   43.3504 O   0  0  0  0  0  0  0  0  0  0  0  0
   40.6090  -20.2429   42.1148 C   0  0  0  0  0  0  0  0  0  0  0  0
   39.5298  -20.7906   41.5262 N   0  0  0  0  0  0  0  0  0  0  0  0
   38.5144  -20.8660   42.3883 C   0  0  0  0  0  0  0  0  0  0  0  0
   41.8987  -20.0042   41.4813 C   0  0  0  0  0  0  0  0  0  0  0  0
   42.9877  -20.7965   41.7789 C   0  0  0  0  0  0  0  0  0  0  0  0
   44.2309  -20.5873   41.1879 C   0  0  0  0  0  0  0  0  0  0  0  0
   44.3903  -19.5651   40.2807 C   0  0  0  0  0  0  0  0  0  0  0  0
   43.3272  -18.7671   39.9697 C   0  0  0  0  0  0  0  0  0  0  0  0
   42.0849  -18.9895   40.5711 C   0  0  0  0  0  0  0  0  0  0  0  0
   38.3869  -19.6095   35.6359 C   0  0  0  0  0  0  0  0  0  0  0  0
   39.7466  -19.4329   35.2540 N   0  0  0  0  0  0  0  0  0  0  0  0
   39.8923  -18.7447   34.0214 C   0  0  0  0  0  0  0  0  0  0  0  0
   41.0390  -19.1477   33.1967 C   0  0  0  0  0  0  0  0  0  0  0  0
   42.2089  -18.7431   33.3046 O   0  0  0  0  0  0  0  0  0  0  0  0
   40.8062  -20.0880   32.1739 O   0  0  0  0  0  0  0  0  0  0  0  0
   40.8361  -19.7887   31.2096 H   0  0  0  0  0  0  0  0  0  0  0  0
   40.5948  -18.9985   36.3237 C   0  0  0  0  0  0  0  0  0  0  0  0
   41.5765  -19.9700   36.7964 C   0  0  0  0  0  0  0  0  0  0  0  0
   42.8968  -20.0326   36.4147 C   0  0  0  0  0  0  0  0  0  0  0  0
   43.7504  -21.0017   36.9191 C   0  0  0  0  0  0  0  0  0  0  0  0
   43.3232  -21.9476   37.8245 C   0  0  0  0  0  0  0  0  0  0  0  0
   44.2008  -22.8969   38.3041 C   0  0  0  0  0  0  0  0  0  0  0  0
   43.7813  -23.8496   39.2108 C   0  0  0  0  0  0  0  0  0  0  0  0
   42.4640  -23.8142   39.6130 C   0  0  0  0  0  0  0  0  0  0  0  0
   41.5774  -22.8521   39.1262 C   0  0  0  0  0  0  0  0  0  0  0  0
   42.0012  -21.8992   38.2182 C   0  0  0  0  0  0  0  0  0  0  0  0
   41.1556  -20.9327   37.7134 C   0  0  0  0  0  0  0  0  0  0  0  0
 10 11  1  0  0  0
 11 12  1  0  0  0
 12 13  1  0  0  0
 13 16  1  0  0  0
 16 17  2  0  0  0
 17 18  1  0  0  0
 18 19  2  0  0  0
 19 20  1  0  0  0
 20 21  2  0  0  0
 13 14  2  0  0  0
 14 15  1  0  0  0
 15  9  1  0  0  0
  9  8  1  0  0  0
  8  7  1  0  0  0
  7  1  1  0  0  0
  1  2  2  0  0  0
  2  3  1  0  0  0
  3  4  2  0  0  0
  4  5  1  0  0  0
  5 22  1  0  0  0
 22 23  1  0  0  0
 23 24  1  0  0  0
 24 25  1  0  0  0
 25 26  2  0  0  0
 25 27  1  0  0  0
 23 29  1  0  0  0
 29 30  1  0  0  0
 30 31  2  0  0  0
 31 32  1  0  0  0
 32 33  2  0  0  0
 33 34  1  0  0  0
 34 35  2  0  0  0
 35 36  1  0  0  0
 36 37  2  0  0  0
 37 38  1  0  0  0
 38 39  2  0  0  0
  5  6  2  0  0  0
 15 11  2  0  0  0
  6  1  1  0  0  0
 21 16  1  0  0  0
 39 30  1  0  0  0
 38 33  1  0  0  0
 27 28  1  0  0  0
M  END
> <minimizedAffinity>
-4.46547

> <CNNscore>
0.2569185793

> <CNNaffinity>
5.2708654404

> <CNN_VS>
1.3541833162

> <CNNaffinity_variance>
0.8379126787

$$$$
[H]OC(=O)C([H])([H])N(C([H])([H])c1c([H])c([H])c([H])c(OC([H])([H])C([H])([H])c2nc(-c3c([H])c([H])c([H])c([H])c3[H])oc2C([H])([H])[H])c1[H])C([H])([H])c1c([H])c([H])c2c([H])c([H])c([H])c([H])c2c1[H]


 39 43  0  0  0  0  0  0  0  0999 V2000
   33.2145  -19.9080   36.2555 C   0  0  0  0  0  0  0  0  0  0  0  0
   33.3071  -18.9308   35.3052 C   0  0  0  0  0  0  0  0  0  0  0  0
   32.2437  -18.6908   34.4678 C   0  0  0  0  0  0  0  0  0  0  0  0
   31.0653  -19.3988   34.5394 C   0  0  0  0  0  0  0  0  0  0  0  0
   30.9391  -20.3893   35.4852 C   0  0  0  0  0  0  0  0  0  0  0  0
   32.0055  -20.6194   36.3137 C   0  0  0  0  0  0  0  0  0  0  0  0
   34.2145  -20.2113   37.1192 O   0  0  0  0  0  0  0  0  0  0  0  0
   35.4902  -20.6653   36.9740 C   0  0  0  0  0  0  0  0  0  0  0  0
   36.6126  -19.7463   37.3260 C   0  0  0  0  0  0  0  0  0  0  0  0
   37.6562  -18.9115   34.4866 C   0  0  0  0  0  0  0  0  0  0  0  0
   36.9139  -18.0307   35.4065 C   0  0  0  0  0  0  0  0  0  0  0  0
   36.5695  -16.7789   35.2034 O   0  0  0  0  0  0  0  0  0  0  0  0
   35.9181  -16.3145   36.2403 C   0  0  0  0  0  0  0  0  0  0  0  0
   35.8498  -17.3180   37.1344 N   0  0  0  0  0  0  0  0  0  0  0  0
   36.4560  -18.4084   36.6614 C   0  0  0  0  0  0  0  0  0  0  0  0
   35.3663  -14.9777   36.4127 C   0  0  0  0  0  0  0  0  0  0  0  0
   34.0023  -14.7737   36.4212 C   0  0  0  0  0  0  0  0  0  0  0  0
   33.4509  -13.5054   36.5828 C   0  0  0  0  0  0  0  0  0  0  0  0
   34.2789  -12.4176   36.7389 C   0  0  0  0  0  0  0  0  0  0  0  0
   35.6327  -12.5940   36.7341 C   0  0  0  0  0  0  0  0  0  0  0  0
   36.1718  -13.8735   36.5710 C   0  0  0  0  0  0  0  0  0  0  0  0
   29.6881  -21.1518   35.5646 C   0  0  0  0  0  0  0  0  0  0  0  0
   29.4190  -21.7924   36.8069 N   0  0  0  0  0  0  0  0  0  0  0  0
   28.0517  -21.7260   37.1812 C   0  0  0  0  0  0  0  0  0  0  0  0
   27.7295  -20.7794   38.2572 C   0  0  0  0  0  0  0  0  0  0  0  0
   27.7998  -20.9935   39.4792 O   0  0  0  0  0  0  0  0  0  0  0  0
   27.2944  -19.4929   37.8830 O   0  0  0  0  0  0  0  0  0  0  0  0
   26.3281  -19.2356   38.0262 H   0  0  0  0  0  0  0  0  0  0  0  0
   30.0503  -23.0709   36.9455 C   0  0  0  0  0  0  0  0  0  0  0  0
   29.7406  -24.0527   35.9105 C   0  0  0  0  0  0  0  0  0  0  0  0
   28.6511  -24.8927   35.8965 C   0  0  0  0  0  0  0  0  0  0  0  0
   28.4492  -25.7983   34.8662 C   0  0  0  0  0  0  0  0  0  0  0  0
   29.3244  -25.9033   33.8079 C   0  0  0  0  0  0  0  0  0  0  0  0
   29.0912  -26.8162   32.8012 C   0  0  0  0  0  0  0  0  0  0  0  0
   29.9635  -26.9294   31.7372 C   0  0  0  0  0  0  0  0  0  0  0  0
   31.0652  -26.1021   31.7219 C   0  0  0  0  0  0  0  0  0  0  0  0
   31.2990  -25.1784   32.7421 C   0  0  0  0  0  0  0  0  0  0  0  0
   30.4229  -25.0677   33.8062 C   0  0  0  0  0  0  0  0  0  0  0  0
   30.6195  -24.1682   34.8339 C   0  0  0  0  0  0  0  0  0  0  0  0
 10 11  1  0  0  0
 11 12  1  0  0  0
 12 13  1  0  0  0
 13 16  1  0  0  0
 16 17  2  0  0  0
 17 18  1  0  0  0
 18 19  2  0  0  0
 19 20  1  0  0  0
 20 21  2  0  0  0
 13 14  2  0  0  0
 14 15  1  0  0  0
 15  9  1  0  0  0
  9  8  1  0  0  0
  8  7  1  0  0  0
  7  1  1  0  0  0
  1  2  2  0  0  0
  2  3  1  0  0  0
  3  4  2  0  0  0
  4  5  1  0  0  0
  5 22  1  0  0  0
 22 23  1  0  0  0
 23 24  1  0  0  0
 24 25  1  0  0  0
 25 26  2  0  0  0
 25 27  1  0  0  0
 23 29  1  0  0  0
 29 30  1  0  0  0
 30 31  2  0  0  0
 31 32  1  0  0  0
 32 33  2  0  0  0
 33 34  1  0  0  0
 34 35  2  0  0  0
 35 36  1  0  0  0
 36 37  2  0  0  0
 37 38  1  0  0  0
 38 39  2  0  0  0
  5  6  2  0  0  0
 15 11  2  0  0  0
  6  1  1  0  0  0
 21 16  1  0  0  0
 39 30  1  0  0  0
 38 33  1  0  0  0
 27 28  1  0  0  0
M  END
> <minimizedAffinity>
-7.56426

> <CNNscore>
0.2441519648

> <CNNaffinity>
5.6369934082

> <CNN_VS>
1.3762830496

> <CNNaffinity_variance>
0.3999108672

$$$$
[H]OC(=O)C([H])([H])N(C([H])([H])c1c([H])c([H])c([H])c(OC([H])([H])C([H])([H])c2nc(-c3c([H])c([H])c([H])c([H])c3[H])oc2C([H])([H])[H])c1[H])C([H])([H])c1c([H])c([H])c2c([H])c([H])c([H])c([H])c2c1[H]


 39 43  0  0  0  0  0  0  0  0999 V2000
   36.9825  -18.4767   36.2304 C   0  0  0  0  0  0  0  0  0  0  0  0
   36.6722  -19.6720   36.8148 C   0  0  0  0  0  0  0  0  0  0  0  0
   37.3118  -20.8177   36.4055 C   0  0  0  0  0  0  0  0  0  0  0  0
   38.2696  -20.8228   35.4168 C   0  0  0  0  0  0  0  0  0  0  0  0
   38.6057  -19.6362   34.8081 C   0  0  0  0  0  0  0  0  0  0  0  0
   37.9613  -18.5013   35.2242 C   0  0  0  0  0  0  0  0  0  0  0  0
   36.3993  -17.3013   36.5715 O   0  0  0  0  0  0  0  0  0  0  0  0
   35.8075  -16.2954   35.8697 C   0  0  0  0  0  0  0  0  0  0  0  0
   34.4061  -15.9181   36.2192 C   0  0  0  0  0  0  0  0  0  0  0  0
   36.6892  -14.2575   37.5898 C   0  0  0  0  0  0  0  0  0  0  0  0
   35.3294  -13.7586   37.3161 C   0  0  0  0  0  0  0  0  0  0  0  0
   34.8504  -12.5659   37.5899 O   0  0  0  0  0  0  0  0  0  0  0  0
   33.6022  -12.4794   37.2029 C   0  0  0  0  0  0  0  0  0  0  0  0
   33.2824  -13.6695   36.6621 N   0  0  0  0  0  0  0  0  0  0  0  0
   34.3251  -14.5004   36.7092 C   0  0  0  0  0  0  0  0  0  0  0  0
   32.7158  -11.3300   37.3238 C   0  0  0  0  0  0  0  0  0  0  0  0
   31.3462  -11.4905   37.3002 C   0  0  0  0  0  0  0  0  0  0  0  0
   30.4783  -10.4075   37.4124 C   0  0  0  0  0  0  0  0  0  0  0  0
   30.9888   -9.1372   37.5507 C   0  0  0  0  0  0  0  0  0  0  0  0
   32.3412   -8.9527   37.5769 C   0  0  0  0  0  0  0  0  0  0  0  0
   33.2001  -10.0499   37.4633 C   0  0  0  0  0  0  0  0  0  0  0  0
   39.6220  -19.6341   33.7499 C   0  0  0  0  0  0  0  0  0  0  0  0
   40.9156  -20.0998   34.1184 N   0  0  0  0  0  0  0  0  0  0  0  0
   41.3719  -21.1712   33.3072 C   0  0  0  0  0  0  0  0  0  0  0  0
   42.2825  -22.1222   33.9584 C   0  0  0  0  0  0  0  0  0  0  0  0
   42.2128  -22.5329   35.1291 O   0  0  0  0  0  0  0  0  0  0  0  0
   43.3496  -22.6300   33.1918 O   0  0  0  0  0  0  0  0  0  0  0  0
   44.2928  -22.3320   33.3969 H   0  0  0  0  0  0  0  0  0  0  0  0
   41.8580  -19.0497   34.3662 C   0  0  0  0  0  0  0  0  0  0  0  0
   42.2550  -18.8619   35.7583 C   0  0  0  0  0  0  0  0  0  0  0  0
   43.3009  -18.0851   36.2004 C   0  0  0  0  0  0  0  0  0  0  0  0
   43.6016  -17.9767   37.5495 C   0  0  0  0  0  0  0  0  0  0  0  0
   42.8721  -18.6376   38.5129 C   0  0  0  0  0  0  0  0  0  0  0  0
   43.2010  -18.5064   39.8455 C   0  0  0  0  0  0  0  0  0  0  0  0
   42.4763  -19.1659   40.8180 C   0  0  0  0  0  0  0  0  0  0  0  0
   41.4222  -19.9526   40.4076 C   0  0  0  0  0  0  0  0  0  0  0  0
   41.0910  -20.0838   39.0578 C   0  0  0  0  0  0  0  0  0  0  0  0
   41.8191  -19.4214   38.0866 C   0  0  0  0  0  0  0  0  0  0  0  0
   41.5238  -19.5261   36.7428 C   0  0  0  0  0  0  0  0  0  0  0  0
 10 11  1  0  0  0
 11 12  1  0  0  0
 12 13  1  0  0  0
 13 16  1  0  0  0
 16 17  2  0  0  0
 17 18  1  0  0  0
 18 19  2  0  0  0
 19 20  1  0  0  0
 20 21  2  0  0  0
 13 14  2  0  0  0
 14 15  1  0  0  0
 15  9  1  0  0  0
  9  8  1  0  0  0
  8  7  1  0  0  0
  7  1  1  0  0  0
  1  2  2  0  0  0
  2  3  1  0  0  0
  3  4  2  0  0  0
  4  5  1  0  0  0
  5 22  1  0  0  0
 22 23  1  0  0  0
 23 24  1  0  0  0
 24 25  1  0  0  0
 25 26  2  0  0  0
 25 27  1  0  0  0
 23 29  1  0  0  0
 29 30  1  0  0  0
 30 31  2  0  0  0
 31 32  1  0  0  0
 32 33  2  0  0  0
 33 34  1  0  0  0
 34 35  2  0  0  0
 35 36  1  0  0  0
 36 37  2  0  0  0
 37 38  1  0  0  0
 38 39  2  0  0  0
  5  6  2  0  0  0
 15 11  2  0  0  0
  6  1  1  0  0  0
 21 16  1  0  0  0
 39 30  1  0  0  0
 38 33  1  0  0  0
 27 28  1  0  0  0
M  END
> <minimizedAffinity>
-8.26653

> <CNNscore>
0.2232796699

> <CNNaffinity>
5.8778839111

> <CNN_VS>
1.3124120235

> <CNNaffinity_variance>
0.2821320891

$$$$
[H]c1nc([H])c(N([H])C2([H])C([H])([H])N(C(=O)c3c(C([H])([H])[H])noc3C([H])([H])[H])C2([H])[H])c([H])c1N1C(=O)c2c([H])c([H])c(Cl)c([H])c2C([H])([H])C1([H])[H]


 33 37  0  0  0  0  0  0  0  0999 V2000
   33.9326  -16.8315   35.5534 C   0  0  0  0  0  0  0  0  0  0  0  0
   35.2768  -17.2071   35.4129 C   0  0  0  0  0  0  0  0  0  0  0  0
   35.5924  -18.4760   35.1126 N   0  0  0  0  0  0  0  0  0  0  0  0
   34.6386  -19.4234   34.9374 C   0  0  0  0  0  0  0  0  0  0  0  0
   33.2949  -19.1279   35.0595 C   0  0  0  0  0  0  0  0  0  0  0  0
   32.9763  -17.8046   35.3724 C   0  0  0  0  0  0  0  0  0  0  0  0
   32.2898  -20.1092   34.8657 N   0  0  0  0  0  0  0  0  0  0  0  0
   32.6380  -21.2851   34.0988 C   0  0  0  0  0  0  0  0  0  0  0  0
   31.9600  -22.5236   34.5777 C   0  0  0  0  0  0  0  0  0  0  0  0
   30.6438  -22.2806   35.2001 C   0  0  0  0  0  0  0  0  0  0  0  0
   29.8373  -23.4029   35.3777 C   0  0  0  0  0  0  0  0  0  0  0  0
   28.5672  -23.2842   35.9518 C   0  0  0  0  0  0  0  0  0  0  0  0
   27.5415  -24.6884   36.1840 Cl  0  0  0  0  0  0  0  0  0  0  0  0
   28.0734  -22.0537   36.3596 C   0  0  0  0  0  0  0  0  0  0  0  0
   28.9060  -20.9580   36.1666 C   0  0  0  0  0  0  0  0  0  0  0  0
   30.1554  -21.0811   35.6016 C   0  0  0  0  0  0  0  0  0  0  0  0
   31.0012  -19.8972   35.4398 C   0  0  0  0  0  0  0  0  0  0  0  0
   30.5876  -18.7717   35.7964 O   0  0  0  0  0  0  0  0  0  0  0  0
   33.6397  -15.4853   35.8617 N   0  0  0  0  0  0  0  0  0  0  0  0
   32.6415  -15.1687   35.8070 H   0  0  0  0  0  0  0  0  0  0  0  0
   32.8567  -12.3282   38.0777 C   0  0  0  0  0  0  0  0  0  0  0  0
   32.8407  -12.8496   39.3084 O   0  0  0  0  0  0  0  0  0  0  0  0
   33.7819  -13.0029   37.2721 N   0  0  0  0  0  0  0  0  0  0  0  0
   34.6847  -14.1410   37.6673 C   0  0  0  0  0  0  0  0  0  0  0  0
   34.7121  -14.5850   36.2428 C   0  0  0  0  0  0  0  0  0  0  0  0
   34.3604  -13.1160   35.9906 C   0  0  0  0  0  0  0  0  0  0  0  0
   33.8095   -9.4861   37.3028 C   0  0  0  0  0  0  0  0  0  0  0  0
   32.4071   -9.9509   37.5010 C   0  0  0  0  0  0  0  0  0  0  0  0
   31.3247   -9.1734   37.3567 N   0  0  0  0  0  0  0  0  0  0  0  0
   30.2844   -9.8571   37.5891 O   0  0  0  0  0  0  0  0  0  0  0  0
   30.6180  -11.1222   37.8989 C   0  0  0  0  0  0  0  0  0  0  0  0
   29.6082  -12.1351   38.2128 C   0  0  0  0  0  0  0  0  0  0  0  0
   31.9661  -11.2416   37.8589 C   0  0  0  0  0  0  0  0  0  0  0  0
 27 28  1  0  0  0
 28 29  2  0  0  0
 29 30  1  0  0  0
 30 31  1  0  0  0
 31 32  1  0  0  0
 31 33  2  0  0  0
 33 21  1  0  0  0
 21 22  2  0  0  0
 21 23  1  0  0  0
 23 24  1  0  0  0
 24 25  1  0  0  0
 25 19  1  0  0  0
 19  1  1  0  0  0
  1  2  2  0  0  0
  2  3  1  0  0  0
  3  4  2  0  0  0
  4  5  1  0  0  0
  5  7  1  0  0  0
  7  8  1  0  0  0
  8  9  1  0  0  0
  9 10  1  0  0  0
 10 11  2  0  0  0
 11 12  1  0  0  0
 12 13  1  0  0  0
 12 14  2  0  0  0
 14 15  1  0  0  0
 15 16  2  0  0  0
 16 17  1  0  0  0
 17 18  2  0  0  0
  5  6  2  0  0  0
 25 26  1  0  0  0
 33 28  1  0  0  0
 26 23  1  0  0  0
  6  1  1  0  0  0
 17  7  1  0  0  0
 16 10  1  0  0  0
 19 20  1  0  0  0
M  END
> <minimizedAffinity>
-9.22771

> <CNNscore>
0.5245674253

> <CNNaffinity>
6.4802031517

> <CNN_VS>
3.3993034363

> <CNNaffinity_variance>
0.0318579152

$$$$
[H]c1nc([H])c(N([H])C2([H])C([H])([H])N(C(=O)c3c(C([H])([H])[H])noc3C([H])([H])[H])C2([H])[H])c([H])c1N1C(=O)c2c([H])c([H])c(Cl)c([H])c2C([H])([H])C1([H])[H]


 33 37  0  0  0  0  0  0  0  0999 V2000
   34.9508  -16.3015   35.6615 C   0  0  0  0  0  0  0  0  0  0  0  0
   36.3124  -16.6324   35.5958 C   0  0  0  0  0  0  0  0  0  0  0  0
   36.6892  -17.9181   35.5262 N   0  0  0  0  0  0  0  0  0  0  0  0
   35.7818  -18.9253   35.5171 C   0  0  0  0  0  0  0  0  0  0  0  0
   34.4246  -18.6765   35.5790 C   0  0  0  0  0  0  0  0  0  0  0  0
   34.0422  -17.3352   35.6513 C   0  0  0  0  0  0  0  0  0  0  0  0
   33.4677  -19.7227   35.5573 N   0  0  0  0  0  0  0  0  0  0  0  0
   32.6656  -19.8747   34.3634 C   0  0  0  0  0  0  0  0  0  0  0  0
   32.3407  -21.2953   34.0481 C   0  0  0  0  0  0  0  0  0  0  0  0
   32.2592  -22.1667   35.2368 C   0  0  0  0  0  0  0  0  0  0  0  0
   31.6605  -23.4096   35.0412 C   0  0  0  0  0  0  0  0  0  0  0  0
   31.5256  -24.3106   36.1027 C   0  0  0  0  0  0  0  0  0  0  0  0
   30.7763  -25.8799   35.8712 Cl  0  0  0  0  0  0  0  0  0  0  0  0
   31.9799  -23.9973   37.3753 C   0  0  0  0  0  0  0  0  0  0  0  0
   32.5712  -22.7494   37.5316 C   0  0  0  0  0  0  0  0  0  0  0  0
   32.7019  -21.8671   36.4829 C   0  0  0  0  0  0  0  0  0  0  0  0
   33.3515  -20.5728   36.6969 C   0  0  0  0  0  0  0  0  0  0  0  0
   33.7730  -20.2575   37.8318 O   0  0  0  0  0  0  0  0  0  0  0  0
   34.5930  -14.9373   35.7255 N   0  0  0  0  0  0  0  0  0  0  0  0
   33.6800  -14.6426   35.3023 H   0  0  0  0  0  0  0  0  0  0  0  0
   33.1221  -12.1377   38.0685 C   0  0  0  0  0  0  0  0  0  0  0  0
   32.9686  -12.7939   39.2229 O   0  0  0  0  0  0  0  0  0  0  0  0
   34.2328  -12.6276   37.3708 N   0  0  0  0  0  0  0  0  0  0  0  0
   35.1819  -13.7135   37.8027 C   0  0  0  0  0  0  0  0  0  0  0  0
   35.4845  -13.9893   36.3676 C   0  0  0  0  0  0  0  0  0  0  0  0
   35.0165  -12.5406   36.2013 C   0  0  0  0  0  0  0  0  0  0  0  0
   33.8892   -9.2618   37.2167 C   0  0  0  0  0  0  0  0  0  0  0  0
   32.5193   -9.8151   37.4141 C   0  0  0  0  0  0  0  0  0  0  0  0
   31.3884   -9.1182   37.2343 N   0  0  0  0  0  0  0  0  0  0  0  0
   30.3942   -9.8641   37.4765 O   0  0  0  0  0  0  0  0  0  0  0  0
   30.8091  -11.0936   37.8287 C   0  0  0  0  0  0  0  0  0  0  0  0
   29.8666  -12.1632   38.1629 C   0  0  0  0  0  0  0  0  0  0  0  0
   32.1625  -11.1216   37.8068 C   0  0  0  0  0  0  0  0  0  0  0  0
 27 28  1  0  0  0
 28 29  2  0  0  0
 29 30  1  0  0  0
 30 31  1  0  0  0
 31 32  1  0  0  0
 31 33  2  0  0  0
 33 21  1  0  0  0
 21 22  2  0  0  0
 21 23  1  0  0  0
 23 24  1  0  0  0
 24 25  1  0  0  0
 25 19  1  0  0  0
 19  1  1  0  0  0
  1  2  2  0  0  0
  2  3  1  0  0  0
  3  4  2  0  0  0
  4  5  1  0  0  0
  5  7  1  0  0  0
  7  8  1  0  0  0
  8  9  1  0  0  0
  9 10  1  0  0  0
 10 11  2  0  0  0
 11 12  1  0  0  0
 12 13  1  0  0  0
 12 14  2  0  0  0
 14 15  1  0  0  0
 15 16  2  0  0  0
 16 17  1  0  0  0
 17 18  2  0  0  0
  5  6  2  0  0  0
 25 26  1  0  0  0
 33 28  1  0  0  0
 26 23  1  0  0  0
  6  1  1  0  0  0
 17  7  1  0  0  0
 16 10  1  0  0  0
 19 20  1  0  0  0
M  END
> <minimizedAffinity>
-8.47318

> <CNNscore>
0.4388340712

> <CNNaffinity>
6.3917398453

> <CNN_VS>
2.8049132824

> <CNNaffinity_variance>
0.0794422328

$$$$
[H]c1nc([H])c(N([H])C2([H])C([H])([H])N(C(=O)c3c(C([H])([H])[H])noc3C([H])([H])[H])C2([H])[H])c([H])c1N1C(=O)c2c([H])c([H])c(Cl)c([H])c2C([H])([H])C1([H])[H]


 33 37  0  0  0  0  0  0  0  0999 V2000
   38.3290  -19.6647   35.2655 C   0  0  0  0  0  0  0  0  0  0  0  0
   38.7274  -18.7521   34.2776 C   0  0  0  0  0  0  0  0  0  0  0  0
   37.8118  -17.9994   33.6492 N   0  0  0  0  0  0  0  0  0  0  0  0
   36.4915  -18.0933   33.9427 C   0  0  0  0  0  0  0  0  0  0  0  0
   36.0249  -18.9689   34.9036 C   0  0  0  0  0  0  0  0  0  0  0  0
   36.9854  -19.7482   35.5520 C   0  0  0  0  0  0  0  0  0  0  0  0
   34.6474  -19.0650   35.2262 N   0  0  0  0  0  0  0  0  0  0  0  0
   33.7385  -18.1513   34.5697 C   0  0  0  0  0  0  0  0  0  0  0  0
   32.4037  -18.7511   34.2839 C   0  0  0  0  0  0  0  0  0  0  0  0
   32.0019  -19.7977   35.2440 C   0  0  0  0  0  0  0  0  0  0  0  0
   30.6583  -20.1658   35.2172 C   0  0  0  0  0  0  0  0  0  0  0  0
   30.1695  -21.1435   36.0902 C   0  0  0  0  0  0  0  0  0  0  0  0
   28.4810  -21.6190   36.0663 Cl  0  0  0  0  0  0  0  0  0  0  0  0
   31.0013  -21.7731   37.0045 C   0  0  0  0  0  0  0  0  0  0  0  0
   32.3342  -21.3800   37.0017 C   0  0  0  0  0  0  0  0  0  0  0  0
   32.8095  -20.4176   36.1396 C   0  0  0  0  0  0  0  0  0  0  0  0
   34.2276  -20.0549   36.1636 C   0  0  0  0  0  0  0  0  0  0  0  0
   35.0061  -20.6026   36.9754 O   0  0  0  0  0  0  0  0  0  0  0  0
   39.3223  -20.4334   35.9104 N   0  0  0  0  0  0  0  0  0  0  0  0
   39.0293  -21.3110   36.4037 H   0  0  0  0  0  0  0  0  0  0  0  0
   41.5634  -20.7460   39.1307 C   0  0  0  0  0  0  0  0  0  0  0  0
   41.9524  -22.0236   39.0756 O   0  0  0  0  0  0  0  0  0  0  0  0
   41.4203  -20.2216   37.8404 N   0  0  0  0  0  0  0  0  0  0  0  0
   41.6749  -20.9216   36.5320 C   0  0  0  0  0  0  0  0  0  0  0  0
   40.7057  -19.9969   35.8741 C   0  0  0  0  0  0  0  0  0  0  0  0
   41.0678  -19.0999   37.0613 C   0  0  0  0  0  0  0  0  0  0  0  0
   43.5082  -18.7018   40.4053 C   0  0  0  0  0  0  0  0  0  0  0  0
   42.2734  -19.2784   41.0091 C   0  0  0  0  0  0  0  0  0  0  0  0
   41.8141  -18.9720   42.2306 N   0  0  0  0  0  0  0  0  0  0  0  0
   40.7495  -19.6209   42.4523 O   0  0  0  0  0  0  0  0  0  0  0  0
   40.4443  -20.3910   41.3933 C   0  0  0  0  0  0  0  0  0  0  0  0
   39.2579  -21.2492   41.3756 C   0  0  0  0  0  0  0  0  0  0  0  0
   41.3862  -20.2133   40.4371 C   0  0  0  0  0  0  0  0  0  0  0  0
 27 28  1  0  0  0
 28 29  2  0  0  0
 29 30  1  0  0  0
 30 31  1  0  0  0
 31 32  1  0  0  0
 31 33  2  0  0  0
 33 21  1  0  0  0
 21 22  2  0  0  0
 21 23  1  0  0  0
 23 24  1  0  0  0
 24 25  1  0  0  0
 25 19  1  0  0  0
 19  1  1  0  0  0
  1  2  2  0  0  0
  2  3  1  0  0  0
  3  4  2  0  0  0
  4  5  1  0  0  0
  5  7  1  0  0  0
  7  8  1  0  0  0
  8  9  1  0  0  0
  9 10  1  0  0  0
 10 11  2  0  0  0
 11 12  1  0  0  0
 12 13  1  0  0  0
 12 14  2  0  0  0
 14 15  1  0  0  0
 15 16  2  0  0  0
 16 17  1  0  0  0
 17 18  2  0  0  0
  5  6  2  0  0  0
 25 26  1  0  0  0
 33 28  1  0  0  0
 26 23  1  0  0  0
  6  1  1  0  0  0
 17  7  1  0  0  0
 16 10  1  0  0  0
 19 20  1  0  0  0
M  END
> <minimizedAffinity>
-6.73306

> <CNNscore>
0.3285457492

> <CNNaffinity>
5.2908968925

> <CNN_VS>
1.7383016348

> <CNNaffinity_variance>
0.4718661308

$$$$
[H]c1nc([H])c(N([H])C2([H])C([H])([H])N(C(=O)c3c(C([H])([H])[H])noc3C([H])([H])[H])C2([H])[H])c([H])c1N1C(=O)c2c([H])c([H])c(Cl)c([H])c2C([H])([H])C1([H])[H]


 33 37  0  0  0  0  0  0  0  0999 V2000
   36.4165  -18.6471   34.3597 C   0  0  0  0  0  0  0  0  0  0  0  0
   36.6636  -17.3428   34.8131 C   0  0  0  0  0  0  0  0  0  0  0  0
   35.7175  -16.6765   35.4917 N   0  0  0  0  0  0  0  0  0  0  0  0
   34.5097  -17.2316   35.7585 C   0  0  0  0  0  0  0  0  0  0  0  0
   34.1947  -18.5110   35.3442 C   0  0  0  0  0  0  0  0  0  0  0  0
   35.1858  -19.1966   34.6384 C   0  0  0  0  0  0  0  0  0  0  0  0
   32.9389  -19.1047   35.6294 N   0  0  0  0  0  0  0  0  0  0  0  0
   31.7872  -18.6240   34.8983 C   0  0  0  0  0  0  0  0  0  0  0  0
   30.7882  -19.6909   34.6039 C   0  0  0  0  0  0  0  0  0  0  0  0
   30.7605  -20.7751   35.6052 C   0  0  0  0  0  0  0  0  0  0  0  0
   29.6543  -21.6210   35.5570 C   0  0  0  0  0  0  0  0  0  0  0  0
   29.5245  -22.6771   36.4650 C   0  0  0  0  0  0  0  0  0  0  0  0
   28.1388  -23.7518   36.4148 Cl  0  0  0  0  0  0  0  0  0  0  0  0
   30.4862  -22.9140   37.4361 C   0  0  0  0  0  0  0  0  0  0  0  0
   31.5745  -22.0500   37.4532 C   0  0  0  0  0  0  0  0  0  0  0  0
   31.6971  -21.0126   36.5564 C   0  0  0  0  0  0  0  0  0  0  0  0
   32.8744  -20.1439   36.6045 C   0  0  0  0  0  0  0  0  0  0  0  0
   33.7611  -20.3287   37.4674 O   0  0  0  0  0  0  0  0  0  0  0  0
   37.4395  -19.3192   33.6563 N   0  0  0  0  0  0  0  0  0  0  0  0
   37.2100  -19.7332   32.7206 H   0  0  0  0  0  0  0  0  0  0  0  0
   38.1958  -22.0739   36.3639 C   0  0  0  0  0  0  0  0  0  0  0  0
   38.4333  -23.1496   35.6070 O   0  0  0  0  0  0  0  0  0  0  0  0
   38.6263  -20.9119   35.7121 N   0  0  0  0  0  0  0  0  0  0  0  0
   39.2937  -20.8082   34.3666 C   0  0  0  0  0  0  0  0  0  0  0  0
   38.7658  -19.4183   34.2365 C   0  0  0  0  0  0  0  0  0  0  0  0
   38.7309  -19.5062   35.7650 C   0  0  0  0  0  0  0  0  0  0  0  0
   39.4982  -21.3238   39.0706 C   0  0  0  0  0  0  0  0  0  0  0  0
   38.1786  -21.9806   38.8493 C   0  0  0  0  0  0  0  0  0  0  0  0
   37.3393  -22.3424   39.8300 N   0  0  0  0  0  0  0  0  0  0  0  0
   36.3058  -22.8698   39.3229 O   0  0  0  0  0  0  0  0  0  0  0  0
   36.4016  -22.8867   37.9819 C   0  0  0  0  0  0  0  0  0  0  0  0
   35.3421  -23.4406   37.1363 C   0  0  0  0  0  0  0  0  0  0  0  0
   37.5816  -22.3299   37.6205 C   0  0  0  0  0  0  0  0  0  0  0  0
 27 28  1  0  0  0
 28 29  2  0  0  0
 29 30  1  0  0  0
 30 31  1  0  0  0
 31 32  1  0  0  0
 31 33  2  0  0  0
 33 21  1  0  0  0
 21 22  2  0  0  0
 21 23  1  0  0  0
 23 24  1  0  0  0
 24 25  1  0  0  0
 25 19  1  0  0  0
 19  1  1  0  0  0
  1  2  2  0  0  0
  2  3  1  0  0  0
  3  4  2  0  0  0
  4  5  1  0  0  0
  5  7  1  0  0  0
  7  8  1  0  0  0
  8  9  1  0  0  0
  9 10  1  0  0  0
 10 11  2  0  0  0
 11 12  1  0  0  0
 12 13  1  0  0  0
 12 14  2  0  0  0
 14 15  1  0  0  0
 15 16  2  0  0  0
 16 17  1  0  0  0
 17 18  2  0  0  0
  5  6  2  0  0  0
 25 26  1  0  0  0
 33 28  1  0  0  0
 26 23  1  0  0  0
  6  1  1  0  0  0
 17  7  1  0  0  0
 16 10  1  0  0  0
 19 20  1  0  0  0
M  END
> <minimizedAffinity>
-6.09169

> <CNNscore>
0.3159867823

> <CNNaffinity>
5.6292266846

> <CNN_VS>
1.7787612677

> <CNNaffinity_variance>
0.4248081148

$$$$
[H]c1nc([H])c(N([H])C2([H])C([H])([H])N(C(=O)c3c(C([H])([H])[H])noc3C([H])([H])[H])C2([H])[H])c([H])c1N1C(=O)c2c([H])c([H])c(Cl)c([H])c2C([H])([H])C1([H])[H]


 33 37  0  0  0  0  0  0  0  0999 V2000
   36.4293  -18.6408   34.3629 C   0  0  0  0  0  0  0  0  0  0  0  0
   36.7000  -17.3519   34.8459 C   0  0  0  0  0  0  0  0  0  0  0  0
   35.7719  -16.6905   35.5536 N   0  0  0  0  0  0  0  0  0  0  0  0
   34.5601  -17.2361   35.8220 C   0  0  0  0  0  0  0  0  0  0  0  0
   34.2224  -18.5002   35.3797 C   0  0  0  0  0  0  0  0  0  0  0  0
   35.1948  -19.1807   34.6437 C   0  0  0  0  0  0  0  0  0  0  0  0
   32.9623  -19.0841   35.6662 N   0  0  0  0  0  0  0  0  0  0  0  0
   31.7986  -18.5232   35.0156 C   0  0  0  0  0  0  0  0  0  0  0  0
   30.7624  -19.5414   34.6800 C   0  0  0  0  0  0  0  0  0  0  0  0
   30.7416  -20.6967   35.5986 C   0  0  0  0  0  0  0  0  0  0  0  0
   29.6129  -21.5105   35.5286 C   0  0  0  0  0  0  0  0  0  0  0  0
   29.4875  -22.6285   36.3601 C   0  0  0  0  0  0  0  0  0  0  0  0
   28.0734  -23.6638   36.2815 Cl  0  0  0  0  0  0  0  0  0  0  0  0
   30.4762  -22.9599   37.2749 C   0  0  0  0  0  0  0  0  0  0  0  0
   31.5865  -22.1253   37.3158 C   0  0  0  0  0  0  0  0  0  0  0  0
   31.7045  -21.0267   36.4944 C   0  0  0  0  0  0  0  0  0  0  0  0
   32.9050  -20.1917   36.5633 C   0  0  0  0  0  0  0  0  0  0  0  0
   33.8163  -20.4614   37.3769 O   0  0  0  0  0  0  0  0  0  0  0  0
   37.4339  -19.3083   33.6292 N   0  0  0  0  0  0  0  0  0  0  0  0
   37.1567  -20.1324   33.0430 H   0  0  0  0  0  0  0  0  0  0  0  0
   40.2666  -21.7430   34.8698 C   0  0  0  0  0  0  0  0  0  0  0  0
   40.5463  -22.4326   33.7594 O   0  0  0  0  0  0  0  0  0  0  0  0
   39.8959  -20.4310   34.5510 N   0  0  0  0  0  0  0  0  0  0  0  0
   39.8246  -19.8040   33.1842 C   0  0  0  0  0  0  0  0  0  0  0  0
   38.8066  -18.8435   33.7020 C   0  0  0  0  0  0  0  0  0  0  0  0
   39.4681  -19.1797   35.0417 C   0  0  0  0  0  0  0  0  0  0  0  0
   37.8699  -22.4289   36.7056 C   0  0  0  0  0  0  0  0  0  0  0  0
   39.3042  -22.7745   36.9182 C   0  0  0  0  0  0  0  0  0  0  0  0
   39.7687  -23.4637   37.9699 N   0  0  0  0  0  0  0  0  0  0  0  0
   41.0233  -23.5971   37.8616 O   0  0  0  0  0  0  0  0  0  0  0  0
   41.4592  -23.0060   36.7354 C   0  0  0  0  0  0  0  0  0  0  0  0
   42.8737  -23.0083   36.3566 C   0  0  0  0  0  0  0  0  0  0  0  0
   40.4013  -22.4611   36.0896 C   0  0  0  0  0  0  0  0  0  0  0  0
 27 28  1  0  0  0
 28 29  2  0  0  0
 29 30  1  0  0  0
 30 31  1  0  0  0
 31 32  1  0  0  0
 31 33  2  0  0  0
 33 21  1  0  0  0
 21 22  2  0  0  0
 21 23  1  0  0  0
 23 24  1  0  0  0
 24 25  1  0  0  0
 25 19  1  0  0  0
 19  1  1  0  0  0
  1  2  2  0  0  0
  2  3  1  0  0  0
  3  4  2  0  0  0
  4  5  1  0  0  0
  5  7  1  0  0  0
  7  8  1  0  0  0
  8  9  1  0  0  0
  9 10  1  0  0  0
 10 11  2  0  0  0
 11 12  1  0  0  0
 12 13  1  0  0  0
 12 14  2  0  0  0
 14 15  1  0  0  0
 15 16  2  0  0  0
 16 17  1  0  0  0
 17 18  2  0  0  0
  5  6  2  0  0  0
 25 26  1  0  0  0
 33 28  1  0  0  0
 26 23  1  0  0  0
  6  1  1  0  0  0
 17  7  1  0  0  0
 16 10  1  0  0  0
 19 20  1  0  0  0
M  END
> <minimizedAffinity>
-6.17616

> <CNNscore>
0.2964152396

> <CNNaffinity>
5.6414175034

> <CNN_VS>
1.6722021103

> <CNNaffinity_variance>
0.3159349561

$$$$
[H]c1nc([H])c(N([H])C2([H])C([H])([H])N(C(=O)c3c(C([H])([H])[H])noc3C([H])([H])[H])C2([H])[H])c([H])c1N1C(=O)c2c([H])c([H])c(Cl)c([H])c2C([H])([H])C1([H])[H]


 33 37  0  0  0  0  0  0  0  0999 V2000
   34.4021  -16.6487   35.4449 C   0  0  0  0  0  0  0  0  0  0  0  0
   33.3859  -17.5159   35.0173 C   0  0  0  0  0  0  0  0  0  0  0  0
   33.6906  -18.7525   34.5958 N   0  0  0  0  0  0  0  0  0  0  0  0
   34.9704  -19.1993   34.5691 C   0  0  0  0  0  0  0  0  0  0  0  0
   36.0230  -18.4025   34.9750 C   0  0  0  0  0  0  0  0  0  0  0  0
   35.6959  -17.1169   35.4118 C   0  0  0  0  0  0  0  0  0  0  0  0
   37.3633  -18.8653   34.9625 N   0  0  0  0  0  0  0  0  0  0  0  0
   38.0039  -19.0336   33.6767 C   0  0  0  0  0  0  0  0  0  0  0  0
   39.4602  -18.7146   33.6971 C   0  0  0  0  0  0  0  0  0  0  0  0
   40.1066  -18.9604   35.0011 C   0  0  0  0  0  0  0  0  0  0  0  0
   41.4998  -18.9823   34.9961 C   0  0  0  0  0  0  0  0  0  0  0  0
   42.2133  -19.2141   36.1768 C   0  0  0  0  0  0  0  0  0  0  0  0
   43.9674  -19.2422   36.1864 Cl  0  0  0  0  0  0  0  0  0  0  0  0
   41.5609  -19.4286   37.3820 C   0  0  0  0  0  0  0  0  0  0  0  0
   40.1720  -19.3993   37.3477 C   0  0  0  0  0  0  0  0  0  0  0  0
   39.4752  -19.1699   36.1827 C   0  0  0  0  0  0  0  0  0  0  0  0
   38.0121  -19.1286   36.2054 C   0  0  0  0  0  0  0  0  0  0  0  0
   37.3913  -19.3180   37.2749 O   0  0  0  0  0  0  0  0  0  0  0  0
   34.0414  -15.3580   35.8892 N   0  0  0  0  0  0  0  0  0  0  0  0
   33.0281  -15.0894   35.8656 H   0  0  0  0  0  0  0  0  0  0  0  0
   33.0428  -12.2449   38.0807 C   0  0  0  0  0  0  0  0  0  0  0  0
   32.9419  -12.7841   39.2996 O   0  0  0  0  0  0  0  0  0  0  0  0
   34.0370  -12.8943   37.3388 N   0  0  0  0  0  0  0  0  0  0  0  0
   34.9252  -14.0244   37.7865 C   0  0  0  0  0  0  0  0  0  0  0  0
   35.0674  -14.4475   36.3624 C   0  0  0  0  0  0  0  0  0  0  0  0
   34.7126  -12.9804   36.1036 C   0  0  0  0  0  0  0  0  0  0  0  0
   34.0058   -9.4138   37.2790 C   0  0  0  0  0  0  0  0  0  0  0  0
   32.6001   -9.8829   37.4394 C   0  0  0  0  0  0  0  0  0  0  0  0
   31.5189   -9.1153   37.2424 N   0  0  0  0  0  0  0  0  0  0  0  0
   30.4752   -9.8005   37.4537 O   0  0  0  0  0  0  0  0  0  0  0  0
   30.8050  -11.0568   37.8011 C   0  0  0  0  0  0  0  0  0  0  0  0
   29.7907  -12.0692   38.1018 C   0  0  0  0  0  0  0  0  0  0  0  0
   32.1543  -11.1686   37.8092 C   0  0  0  0  0  0  0  0  0  0  0  0
 27 28  1  0  0  0
 28 29  2  0  0  0
 29 30  1  0  0  0
 30 31  1  0  0  0
 31 32  1  0  0  0
 31 33  2  0  0  0
 33 21  1  0  0  0
 21 22  2  0  0  0
 21 23  1  0  0  0
 23 24  1  0  0  0
 24 25  1  0  0  0
 25 19  1  0  0  0
 19  1  1  0  0  0
  1  2  2  0  0  0
  2  3  1  0  0  0
  3  4  2  0  0  0
  4  5  1  0  0  0
  5  7  1  0  0  0
  7  8  1  0  0  0
  8  9  1  0  0  0
  9 10  1  0  0  0
 10 11  2  0  0  0
 11 12  1  0  0  0
 12 13  1  0  0  0
 12 14  2  0  0  0
 14 15  1  0  0  0
 15 16  2  0  0  0
 16 17  1  0  0  0
 17 18  2  0  0  0
  5  6  2  0  0  0
 25 26  1  0  0  0
 33 28  1  0  0  0
 26 23  1  0  0  0
  6  1  1  0  0  0
 17  7  1  0  0  0
 16 10  1  0  0  0
 19 20  1  0  0  0
M  END
> <minimizedAffinity>
-8.82210

> <CNNscore>
0.2545462549

> <CNNaffinity>
6.2524271011

> <CNN_VS>
1.5915318727

> <CNNaffinity_variance>
0.1398792118

$$$$
[H]c1nc([H])c(N([H])C2([H])C([H])([H])N(C(=O)c3c(C([H])([H])[H])noc3C([H])([H])[H])C2([H])[H])c([H])c1N1C(=O)c2c([H])c([H])c(Cl)c([H])c2C([H])([H])C1([H])[H]


 33 37  0  0  0  0  0  0  0  0999 V2000
   36.8880  -19.0277   35.0373 C   0  0  0  0  0  0  0  0  0  0  0  0
   37.1327  -17.6627   35.2487 C   0  0  0  0  0  0  0  0  0  0  0  0
   36.1220  -16.8401   35.5673 N   0  0  0  0  0  0  0  0  0  0  0  0
   34.8502  -17.2922   35.6939 C   0  0  0  0  0  0  0  0  0  0  0  0
   34.5332  -18.6227   35.5011 C   0  0  0  0  0  0  0  0  0  0  0  0
   35.5918  -19.4712   35.1696 C   0  0  0  0  0  0  0  0  0  0  0  0
   33.2082  -19.1071   35.6437 N   0  0  0  0  0  0  0  0  0  0  0  0
   32.1892  -18.5374   34.7898 C   0  0  0  0  0  0  0  0  0  0  0  0
   31.1431  -19.5194   34.3842 C   0  0  0  0  0  0  0  0  0  0  0  0
   30.9135  -20.5897   35.3744 C   0  0  0  0  0  0  0  0  0  0  0  0
   29.7526  -21.3406   35.2019 C   0  0  0  0  0  0  0  0  0  0  0  0
   29.4346  -22.3753   36.0880 C   0  0  0  0  0  0  0  0  0  0  0  0
   27.9778  -23.3308   35.8821 Cl  0  0  0  0  0  0  0  0  0  0  0  0
   30.2593  -22.6843   37.1597 C   0  0  0  0  0  0  0  0  0  0  0  0
   31.4076  -21.9141   37.2993 C   0  0  0  0  0  0  0  0  0  0  0  0
   31.7155  -20.8975   36.4235 C   0  0  0  0  0  0  0  0  0  0  0  0
   32.9489  -20.1298   36.6038 C   0  0  0  0  0  0  0  0  0  0  0  0
   33.7157  -20.3815   37.5597 O   0  0  0  0  0  0  0  0  0  0  0  0
   37.9783  -19.8634   34.7118 N   0  0  0  0  0  0  0  0  0  0  0  0
   38.1830  -20.6798   35.3373 H   0  0  0  0  0  0  0  0  0  0  0  0
   41.8942  -19.6064   35.0142 C   0  0  0  0  0  0  0  0  0  0  0  0
   42.2614  -20.8908   34.9662 O   0  0  0  0  0  0  0  0  0  0  0  0
   40.7560  -19.3929   34.2272 N   0  0  0  0  0  0  0  0  0  0  0  0
   40.0121  -20.4041   33.3962 C   0  0  0  0  0  0  0  0  0  0  0  0
   38.7775  -19.5772   33.5349 C   0  0  0  0  0  0  0  0  0  0  0  0
   39.7976  -18.4609   33.7774 C   0  0  0  0  0  0  0  0  0  0  0  0
   41.5317  -19.3333   38.0768 C   0  0  0  0  0  0  0  0  0  0  0  0
   42.5393  -18.6492   37.2173 C   0  0  0  0  0  0  0  0  0  0  0  0
   43.4675  -17.7958   37.6723 N   0  0  0  0  0  0  0  0  0  0  0  0
   44.1721  -17.3878   36.7024 O   0  0  0  0  0  0  0  0  0  0  0  0
   43.7519  -17.9466   35.5539 C   0  0  0  0  0  0  0  0  0  0  0  0
   44.3914  -17.6525   34.2698 C   0  0  0  0  0  0  0  0  0  0  0  0
   42.7069  -18.7646   35.8220 C   0  0  0  0  0  0  0  0  0  0  0  0
 27 28  1  0  0  0
 28 29  2  0  0  0
 29 30  1  0  0  0
 30 31  1  0  0  0
 31 32  1  0  0  0
 31 33  2  0  0  0
 33 21  1  0  0  0
 21 22  2  0  0  0
 21 23  1  0  0  0
 23 24  1  0  0  0
 24 25  1  0  0  0
 25 19  1  0  0  0
 19  1  1  0  0  0
  1  2  2  0  0  0
  2  3  1  0  0  0
  3  4  2  0  0  0
  4  5  1  0  0  0
  5  7  1  0  0  0
  7  8  1  0  0  0
  8  9  1  0  0  0
  9 10  1  0  0  0
 10 11  2  0  0  0
 11 12  1  0  0  0
 12 13  1  0  0  0
 12 14  2  0  0  0
 14 15  1  0  0  0
 15 16  2  0  0  0
 16 17  1  0  0  0
 17 18  2  0  0  0
  5  6  2  0  0  0
 25 26  1  0  0  0
 33 28  1  0  0  0
 26 23  1  0  0  0
  6  1  1  0  0  0
 17  7  1  0  0  0
 16 10  1  0  0  0
 19 20  1  0  0  0
M  END
> <minimizedAffinity>
-6.75031

> <CNNscore>
0.2406634241

> <CNNaffinity>
5.3364887238

> <CNN_VS>
1.2842977047

> <CNNaffinity_variance>
0.5000275970

$$$$
[H]c1nc([H])c(N([H])C2([H])C([H])([H])N(C(=O)c3c(C([H])([H])[H])noc3C([H])([H])[H])C2([H])[H])c([H])c1N1C(=O)c2c([H])c([H])c(Cl)c([H])c2C([H])([H])C1([H])[H]


 33 37  0  0  0  0  0  0  0  0999 V2000
   35.0532  -19.2044   34.4002 C   0  0  0  0  0  0  0  0  0  0  0  0
   34.6877  -17.8587   34.2479 C   0  0  0  0  0  0  0  0  0  0  0  0
   33.3930  -17.5078   34.2641 N   0  0  0  0  0  0  0  0  0  0  0  0
   32.4093  -18.4267   34.4256 C   0  0  0  0  0  0  0  0  0  0  0  0
   32.6928  -19.7695   34.5816 C   0  0  0  0  0  0  0  0  0  0  0  0
   34.0432  -20.1250   34.5632 C   0  0  0  0  0  0  0  0  0  0  0  0
   31.6715  -20.7362   34.7637 N   0  0  0  0  0  0  0  0  0  0  0  0
   31.9091  -22.0687   34.2538 C   0  0  0  0  0  0  0  0  0  0  0  0
   31.3070  -23.1395   35.0986 C   0  0  0  0  0  0  0  0  0  0  0  0
   30.0918  -22.7165   35.8218 C   0  0  0  0  0  0  0  0  0  0  0  0
   29.3198  -23.7402   36.3670 C   0  0  0  0  0  0  0  0  0  0  0  0
   28.1435  -23.4507   37.0666 C   0  0  0  0  0  0  0  0  0  0  0  0
   27.1626  -24.7289   37.7608 Cl  0  0  0  0  0  0  0  0  0  0  0  0
   27.7109  -22.1440   37.2383 C   0  0  0  0  0  0  0  0  0  0  0  0
   28.5066  -21.1504   36.6808 C   0  0  0  0  0  0  0  0  0  0  0  0
   29.6637  -21.4414   35.9939 C   0  0  0  0  0  0  0  0  0  0  0  0
   30.4768  -20.3554   35.4439 C   0  0  0  0  0  0  0  0  0  0  0  0
   30.1164  -19.1651   35.5800 O   0  0  0  0  0  0  0  0  0  0  0  0
   36.4260  -19.5337   34.3861 N   0  0  0  0  0  0  0  0  0  0  0  0
   36.6980  -20.5214   34.1623 H   0  0  0  0  0  0  0  0  0  0  0  0
   40.2517  -20.2970   33.8638 C   0  0  0  0  0  0  0  0  0  0  0  0
   40.4006  -20.0860   32.5523 O   0  0  0  0  0  0  0  0  0  0  0  0
   39.2829  -19.4349   34.3915 N   0  0  0  0  0  0  0  0  0  0  0  0
   38.4989  -18.3780   33.6602 C   0  0  0  0  0  0  0  0  0  0  0  0
   37.4139  -18.5111   34.6762 C   0  0  0  0  0  0  0  0  0  0  0  0
   38.5649  -19.0372   35.5386 C   0  0  0  0  0  0  0  0  0  0  0  0
   42.9921  -19.7170   35.1826 C   0  0  0  0  0  0  0  0  0  0  0  0
   42.3224  -21.0393   35.0246 C   0  0  0  0  0  0  0  0  0  0  0  0
   42.8313  -22.2018   35.4565 N   0  0  0  0  0  0  0  0  0  0  0  0
   42.0277  -23.1398   35.1772 O   0  0  0  0  0  0  0  0  0  0  0  0
   40.9444  -22.6531   34.5471 C   0  0  0  0  0  0  0  0  0  0  0  0
   39.8484  -23.5196   34.1086 C   0  0  0  0  0  0  0  0  0  0  0  0
   41.0776  -21.3117   34.4207 C   0  0  0  0  0  0  0  0  0  0  0  0
 27 28  1  0  0  0
 28 29  2  0  0  0
 29 30  1  0  0  0
 30 31  1  0  0  0
 31 32  1  0  0  0
 31 33  2  0  0  0
 33 21  1  0  0  0
 21 22  2  0  0  0
 21 23  1  0  0  0
 23 24  1  0  0  0
 24 25  1  0  0  0
 25 19  1  0  0  0
 19  1  1  0  0  0
  1  2  2  0  0  0
  2  3  1  0  0  0
  3  4  2  0  0  0
  4  5  1  0  0  0
  5  7  1  0  0  0
  7  8  1  0  0  0
  8  9  1  0  0  0
  9 10  1  0  0  0
 10 11  2  0  0  0
 11 12  1  0  0  0
 12 13  1  0  0  0
 12 14  2  0  0  0
 14 15  1  0  0  0
 15 16  2  0  0  0
 16 17  1  0  0  0
 17 18  2  0  0  0
  5  6  2  0  0  0
 25 26  1  0  0  0
 33 28  1  0  0  0
 26 23  1  0  0  0
  6  1  1  0  0  0
 17  7  1  0  0  0
 16 10  1  0  0  0
 19 20  1  0  0  0
M  END
> <minimizedAffinity>
-6.60857

> <CNNscore>
0.2161199898

> <CNNaffinity>
5.5392193794

> <CNN_VS>
1.1971360445

> <CNNaffinity_variance>
0.1194895282

$$$$
[H]c1nc([H])c(N([H])C2([H])C([H])([H])N(C(=O)c3c(C([H])([H])[H])noc3C([H])([H])[H])C2([H])[H])c([H])c1N1C(=O)c2c([H])c([H])c(Cl)c([H])c2C([H])([H])C1([H])[H]


 33 37  0  0  0  0  0  0  0  0999 V2000
   38.1235  -19.4379   35.6699 C   0  0  0  0  0  0  0  0  0  0  0  0
   37.8070  -19.5833   34.3111 C   0  0  0  0  0  0  0  0  0  0  0  0
   37.0221  -18.6808   33.7034 N   0  0  0  0  0  0  0  0  0  0  0  0
   36.5161  -17.6146   34.3708 C   0  0  0  0  0  0  0  0  0  0  0  0
   36.7846  -17.4058   35.7095 C   0  0  0  0  0  0  0  0  0  0  0  0
   37.6023  -18.3505   36.3333 C   0  0  0  0  0  0  0  0  0  0  0  0
   36.2703  -16.2869   36.4127 N   0  0  0  0  0  0  0  0  0  0  0  0
   37.1693  -15.5779   37.2965 C   0  0  0  0  0  0  0  0  0  0  0  0
   36.9167  -14.1091   37.3403 C   0  0  0  0  0  0  0  0  0  0  0  0
   35.5098  -13.7380   37.0916 C   0  0  0  0  0  0  0  0  0  0  0  0
   35.1560  -12.4323   37.4253 C   0  0  0  0  0  0  0  0  0  0  0  0
   33.8463  -11.9785   37.2369 C   0  0  0  0  0  0  0  0  0  0  0  0
   33.3866  -10.3365   37.6499 Cl  0  0  0  0  0  0  0  0  0  0  0  0
   32.8645  -12.8085   36.7158 C   0  0  0  0  0  0  0  0  0  0  0  0
   33.2548  -14.1030   36.3951 C   0  0  0  0  0  0  0  0  0  0  0  0
   34.5456  -14.5438   36.5821 C   0  0  0  0  0  0  0  0  0  0  0  0
   34.9094  -15.9116   36.2080 C   0  0  0  0  0  0  0  0  0  0  0  0
   34.0491  -16.6873   35.7354 O   0  0  0  0  0  0  0  0  0  0  0  0
   38.9591  -20.4034   36.2723 N   0  0  0  0  0  0  0  0  0  0  0  0
   38.5108  -21.1715   36.8279 H   0  0  0  0  0  0  0  0  0  0  0  0
   41.3223  -20.9132   39.3782 C   0  0  0  0  0  0  0  0  0  0  0  0
   41.4033  -22.2455   39.4499 O   0  0  0  0  0  0  0  0  0  0  0  0
   41.1989  -20.5012   38.0457 N   0  0  0  0  0  0  0  0  0  0  0  0
   41.1803  -21.3684   36.8152 C   0  0  0  0  0  0  0  0  0  0  0  0
   40.3981  -20.3115   36.1092 C   0  0  0  0  0  0  0  0  0  0  0  0
   41.0502  -19.4114   37.1627 C   0  0  0  0  0  0  0  0  0  0  0  0
   39.1751  -21.2304   41.5860 C   0  0  0  0  0  0  0  0  0  0  0  0
   40.3985  -20.3797   41.6250 C   0  0  0  0  0  0  0  0  0  0  0  0
   40.7541  -19.6127   42.6653 N   0  0  0  0  0  0  0  0  0  0  0  0
   41.8383  -19.0171   42.3948 O   0  0  0  0  0  0  0  0  0  0  0  0
   42.2611  -19.3553   41.1640 C   0  0  0  0  0  0  0  0  0  0  0  0
   43.4955  -18.8132   40.5926 C   0  0  0  0  0  0  0  0  0  0  0  0
   41.3776  -20.2262   40.6219 C   0  0  0  0  0  0  0  0  0  0  0  0
 27 28  1  0  0  0
 28 29  2  0  0  0
 29 30  1  0  0  0
 30 31  1  0  0  0
 31 32  1  0  0  0
 31 33  2  0  0  0
 33 21  1  0  0  0
 21 22  2  0  0  0
 21 23  1  0  0  0
 23 24  1  0  0  0
 24 25  1  0  0  0
 25 19  1  0  0  0
 19  1  1  0  0  0
  1  2  2  0  0  0
  2  3  1  0  0  0
  3  4  2  0  0  0
  4  5  1  0  0  0
  5  7  1  0  0  0
  7  8  1  0  0  0
  8  9  1  0  0  0
  9 10  1  0  0  0
 10 11  2  0  0  0
 11 12  1  0  0  0
 12 13  1  0  0  0
 12 14  2  0  0  0
 14 15  1  0  0  0
 15 16  2  0  0  0
 16 17  1  0  0  0
 17 18  2  0  0  0
  5  6  2  0  0  0
 25 26  1  0  0  0
 33 28  1  0  0  0
 26 23  1  0  0  0
  6  1  1  0  0  0
 17  7  1  0  0  0
 16 10  1  0  0  0
 19 20  1  0  0  0
M  END
> <minimizedAffinity>
-8.28603

> <CNNscore>
0.2112085819

> <CNNaffinity>
5.6583294868

> <CNN_VS>
1.1950877905

> <CNNaffinity_variance>
0.2252852172

$$$$
[H]c1c([H])c([H])c2c(nc(SC([H])([H])C(=O)N3C(=O)C([H])([H])C([H])([H])C3([H])[H])n2C([H])([H])[H])c1[H]


 20 22  0  0  0  0  0  0  0  0999 V2000
   37.1197  -17.9102   35.6662 C   0  0  0  0  0  0  0  0  0  0  0  0
   35.8454  -17.1865   35.6599 N   0  0  0  0  0  0  0  0  0  0  0  0
   34.6544  -17.5461   35.2021 C   0  0  0  0  0  0  0  0  0  0  0  0
   33.7856  -16.5310   35.4822 N   0  0  0  0  0  0  0  0  0  0  0  0
   34.4259  -15.5307   36.1144 C   0  0  0  0  0  0  0  0  0  0  0  0
   34.0012  -14.3067   36.5985 C   0  0  0  0  0  0  0  0  0  0  0  0
   34.9018  -13.4734   37.2112 C   0  0  0  0  0  0  0  0  0  0  0  0
   36.2241  -13.8865   37.3282 C   0  0  0  0  0  0  0  0  0  0  0  0
   36.6413  -15.0983   36.8481 C   0  0  0  0  0  0  0  0  0  0  0  0
   35.7325  -15.9508   36.2244 C   0  0  0  0  0  0  0  0  0  0  0  0
   34.1817  -18.9910   34.3427 S   0  0  0  0  0  0  0  0  0  0  0  0
   32.4689  -19.2409   34.0123 C   0  0  0  0  0  0  0  0  0  0  0  0
   31.5745  -19.6356   35.0805 C   0  0  0  0  0  0  0  0  0  0  0  0
   30.9578  -18.8674   35.8174 O   0  0  0  0  0  0  0  0  0  0  0  0
   31.4012  -21.0557   35.2881 N   0  0  0  0  0  0  0  0  0  0  0  0
   32.0353  -22.0930   34.5241 C   0  0  0  0  0  0  0  0  0  0  0  0
   31.2183  -23.3543   34.8269 C   0  0  0  0  0  0  0  0  0  0  0  0
   30.8110  -23.1287   36.2581 C   0  0  0  0  0  0  0  0  0  0  0  0
   30.5711  -21.6654   36.2830 C   0  0  0  0  0  0  0  0  0  0  0  0
   29.7885  -21.0180   37.0242 O   0  0  0  0  0  0  0  0  0  0  0  0
  1  2  1  0  0  0
  2  3  1  0  0  0
  3 11  1  0  0  0
 11 12  1  0  0  0
 12 13  1  0  0  0
 13 14  2  0  0  0
 13 15  1  0  0  0
 15 16  1  0  0  0
 16 17  1  0  0  0
 17 18  1  0  0  0
 18 19  1  0  0  0
 19 20  2  0  0  0
  3  4  2  0  0  0
  4  5  1  0  0  0
  5  6  2  0  0  0
  6  7  1  0  0  0
  7  8  2  0  0  0
  8  9  1  0  0  0
  9 10  2  0  0  0
 10  2  1  0  0  0
 19 15  1  0  0  0
 10  5  1  0  0  0
M  END
> <minimizedAffinity>
-6.75226

> <CNNscore>
0.7673922181

> <CNNaffinity>
4.7178659439

> <CNN_VS>
3.6204535961

> <CNNaffinity_variance>
0.3536034226

$$$$
[H]c1c([H])c([H])c2c(nc(SC([H])([H])C(=O)N3C(=O)C([H])([H])C([H])([H])C3([H])[H])n2C([H])([H])[H])c1[H]


 20 22  0  0  0  0  0  0  0  0999 V2000
   33.6810  -16.6855   35.4624 C   0  0  0  0  0  0  0  0  0  0  0  0
   34.9110  -16.5649   36.2498 N   0  0  0  0  0  0  0  0  0  0  0  0
   35.6853  -17.4991   36.7839 C   0  0  0  0  0  0  0  0  0  0  0  0
   36.7388  -16.8659   37.3779 N   0  0  0  0  0  0  0  0  0  0  0  0
   36.6304  -15.5340   37.2215 C   0  0  0  0  0  0  0  0  0  0  0  0
   37.4227  -14.4766   37.6305 C   0  0  0  0  0  0  0  0  0  0  0  0
   37.0504  -13.1939   37.3191 C   0  0  0  0  0  0  0  0  0  0  0  0
   35.8796  -12.9931   36.5968 C   0  0  0  0  0  0  0  0  0  0  0  0
   35.0978  -14.0416   36.1935 C   0  0  0  0  0  0  0  0  0  0  0  0
   35.4690  -15.3478   36.5057 C   0  0  0  0  0  0  0  0  0  0  0  0
   35.4708  -19.2316   36.8280 S   0  0  0  0  0  0  0  0  0  0  0  0
   34.1694  -19.9346   35.8701 C   0  0  0  0  0  0  0  0  0  0  0  0
   33.0570  -20.5883   36.5273 C   0  0  0  0  0  0  0  0  0  0  0  0
   33.1311  -21.2742   37.5460 O   0  0  0  0  0  0  0  0  0  0  0  0
   31.7548  -20.4123   35.9247 N   0  0  0  0  0  0  0  0  0  0  0  0
   31.4808  -19.6452   34.7422 C   0  0  0  0  0  0  0  0  0  0  0  0
   29.9660  -19.4117   34.7720 C   0  0  0  0  0  0  0  0  0  0  0  0
   29.4648  -20.6817   35.4054 C   0  0  0  0  0  0  0  0  0  0  0  0
   30.5245  -20.9674   36.4028 C   0  0  0  0  0  0  0  0  0  0  0  0
   30.4199  -21.5831   37.4941 O   0  0  0  0  0  0  0  0  0  0  0  0
  1  2  1  0  0  0
  2  3  1  0  0  0
  3 11  1  0  0  0
 11 12  1  0  0  0
 12 13  1  0  0  0
 13 14  2  0  0  0
 13 15  1  0  0  0
 15 16  1  0  0  0
 16 17  1  0  0  0
 17 18  1  0  0  0
 18 19  1  0  0  0
 19 20  2  0  0  0
  3  4  2  0  0  0
  4  5  1  0  0  0
  5  6  2  0  0  0
  6  7  1  0  0  0
  7  8  2  0  0  0
  8  9  1  0  0  0
  9 10  2  0  0  0
 10  2  1  0  0  0
 19 15  1  0  0  0
 10  5  1  0  0  0
M  END
> <minimizedAffinity>
-6.50887

> <CNNscore>
0.6823772788

> <CNNaffinity>
4.3833961487

> <CNN_VS>
2.9911298752

> <CNNaffinity_variance>
0.6227047443

$$$$
[H]c1c([H])c([H])c2c(nc(SC([H])([H])C(=O)N3C(=O)C([H])([H])C([H])([H])C3([H])[H])n2C([H])([H])[H])c1[H]


 20 22  0  0  0  0  0  0  0  0999 V2000
   37.9658  -13.9067   37.4335 C   0  0  0  0  0  0  0  0  0  0  0  0
   36.6810  -14.4976   37.0495 N   0  0  0  0  0  0  0  0  0  0  0  0
   36.3621  -15.7527   36.7660 C   0  0  0  0  0  0  0  0  0  0  0  0
   35.0204  -15.7869   36.5166 N   0  0  0  0  0  0  0  0  0  0  0  0
   34.4918  -14.5558   36.6404 C   0  0  0  0  0  0  0  0  0  0  0  0
   33.2050  -14.0711   36.4919 C   0  0  0  0  0  0  0  0  0  0  0  0
   32.9600  -12.7355   36.6846 C   0  0  0  0  0  0  0  0  0  0  0  0
   34.0196  -11.9027   37.0256 C   0  0  0  0  0  0  0  0  0  0  0  0
   35.2919  -12.3855   37.1719 C   0  0  0  0  0  0  0  0  0  0  0  0
   35.5492  -13.7411   36.9781 C   0  0  0  0  0  0  0  0  0  0  0  0
   37.3858  -17.1628   36.6511 S   0  0  0  0  0  0  0  0  0  0  0  0
   36.7402  -18.5986   35.8590 C   0  0  0  0  0  0  0  0  0  0  0  0
   35.6229  -19.3092   36.4448 C   0  0  0  0  0  0  0  0  0  0  0  0
   35.6566  -19.9578   37.4897 O   0  0  0  0  0  0  0  0  0  0  0  0
   34.3676  -19.2432   35.7309 N   0  0  0  0  0  0  0  0  0  0  0  0
   34.1436  -18.5326   34.5034 C   0  0  0  0  0  0  0  0  0  0  0  0
   32.6194  -18.4055   34.3997 C   0  0  0  0  0  0  0  0  0  0  0  0
   32.1534  -19.6883   35.0341 C   0  0  0  0  0  0  0  0  0  0  0  0
   33.1415  -19.8691   36.1251 C   0  0  0  0  0  0  0  0  0  0  0  0
   32.9866  -20.4582   37.2251 O   0  0  0  0  0  0  0  0  0  0  0  0
  1  2  1  0  0  0
  2  3  1  0  0  0
  3 11  1  0  0  0
 11 12  1  0  0  0
 12 13  1  0  0  0
 13 14  2  0  0  0
 13 15  1  0  0  0
 15 16  1  0  0  0
 16 17  1  0  0  0
 17 18  1  0  0  0
 18 19  1  0  0  0
 19 20  2  0  0  0
  3  4  2  0  0  0
  4  5  1  0  0  0
  5  6  2  0  0  0
  6  7  1  0  0  0
  7  8  2  0  0  0
  8  9  1  0  0  0
  9 10  2  0  0  0
 10  2  1  0  0  0
 19 15  1  0  0  0
 10  5  1  0  0  0
M  END
> <minimizedAffinity>
-5.50468

> <CNNscore>
0.6667129993

> <CNNaffinity>
4.9006862640

> <CNN_VS>
3.2673511505

> <CNNaffinity_variance>
0.2091645747

$$$$
[H]c1c([H])c([H])c2c(nc(SC([H])([H])C(=O)N3C(=O)C([H])([H])C([H])([H])C3([H])[H])n2C([H])([H])[H])c1[H]


 20 22  0  0  0  0  0  0  0  0999 V2000
   37.1629  -14.5858   37.7561 C   0  0  0  0  0  0  0  0  0  0  0  0
   35.9097  -14.7811   37.0220 N   0  0  0  0  0  0  0  0  0  0  0  0
   35.0340  -13.8970   36.5650 C   0  0  0  0  0  0  0  0  0  0  0  0
   34.0597  -14.5901   35.9062 N   0  0  0  0  0  0  0  0  0  0  0  0
   34.3177  -15.9100   35.9476 C   0  0  0  0  0  0  0  0  0  0  0  0
   33.6489  -17.0100   35.4420 C   0  0  0  0  0  0  0  0  0  0  0  0
   34.1621  -18.2652   35.6471 C   0  0  0  0  0  0  0  0  0  0  0  0
   35.3472  -18.3956   36.3621 C   0  0  0  0  0  0  0  0  0  0  0  0
   36.0066  -17.3050   36.8611 C   0  0  0  0  0  0  0  0  0  0  0  0
   35.4920  -16.0263   36.6570 C   0  0  0  0  0  0  0  0  0  0  0  0
   35.0018  -12.1613   36.7548 S   0  0  0  0  0  0  0  0  0  0  0  0
   33.5352  -11.4199   37.3910 C   0  0  0  0  0  0  0  0  0  0  0  0
   32.6427  -12.1864   38.2351 C   0  0  0  0  0  0  0  0  0  0  0  0
   32.9840  -13.0702   39.0200 O   0  0  0  0  0  0  0  0  0  0  0  0
   31.2339  -11.8773   38.1369 N   0  0  0  0  0  0  0  0  0  0  0  0
   30.6578  -10.8782   37.2814 C   0  0  0  0  0  0  0  0  0  0  0  0
   29.2533  -10.6428   37.8489 C   0  0  0  0  0  0  0  0  0  0  0  0
   28.8840  -12.0124   38.3518 C   0  0  0  0  0  0  0  0  0  0  0  0
   30.1806  -12.5090   38.8730 C   0  0  0  0  0  0  0  0  0  0  0  0
   30.3814  -13.3378   39.7971 O   0  0  0  0  0  0  0  0  0  0  0  0
  1  2  1  0  0  0
  2  3  1  0  0  0
  3 11  1  0  0  0
 11 12  1  0  0  0
 12 13  1  0  0  0
 13 14  2  0  0  0
 13 15  1  0  0  0
 15 16  1  0  0  0
 16 17  1  0  0  0
 17 18  1  0  0  0
 18 19  1  0  0  0
 19 20  2  0  0  0
  3  4  2  0  0  0
  4  5  1  0  0  0
  5  6  2  0  0  0
  6  7  1  0  0  0
  7  8  2  0  0  0
  8  9  1  0  0  0
  9 10  2  0  0  0
 10  2  1  0  0  0
 19 15  1  0  0  0
 10  5  1  0  0  0
M  END
> <minimizedAffinity>
-7.27923

> <CNNscore>
0.6657763124

> <CNNaffinity>
5.0888586044

> <CNN_VS>
3.3880414963

> <CNNaffinity_variance>
0.4203224182

$$$$
[H]c1c([H])c([H])c2c(nc(SC([H])([H])C(=O)N3C(=O)C([H])([H])C([H])([H])C3([H])[H])n2C([H])([H])[H])c1[H]


 20 22  0  0  0  0  0  0  0  0999 V2000
   33.3680  -14.7762   35.9596 C   0  0  0  0  0  0  0  0  0  0  0  0
   34.6354  -15.5117   35.9532 N   0  0  0  0  0  0  0  0  0  0  0  0
   35.8267  -15.1763   36.4283 C   0  0  0  0  0  0  0  0  0  0  0  0
   36.6641  -16.2330   36.2143 N   0  0  0  0  0  0  0  0  0  0  0  0
   36.0044  -17.2342   35.6037 C   0  0  0  0  0  0  0  0  0  0  0  0
   36.3969  -18.4904   35.1783 C   0  0  0  0  0  0  0  0  0  0  0  0
   35.4834  -19.3135   34.5709 C   0  0  0  0  0  0  0  0  0  0  0  0
   34.1813  -18.8578   34.3995 C   0  0  0  0  0  0  0  0  0  0  0  0
   33.7961  -17.6142   34.8216 C   0  0  0  0  0  0  0  0  0  0  0  0
   34.7179  -16.7718   35.4397 C   0  0  0  0  0  0  0  0  0  0  0  0
   36.3533  -13.6799   37.1585 S   0  0  0  0  0  0  0  0  0  0  0  0
   35.8471  -12.1657   36.4126 C   0  0  0  0  0  0  0  0  0  0  0  0
   34.7111  -11.4407   36.9422 C   0  0  0  0  0  0  0  0  0  0  0  0
   33.8683  -11.8968   37.7138 O   0  0  0  0  0  0  0  0  0  0  0  0
   34.5666  -10.0657   36.5201 N   0  0  0  0  0  0  0  0  0  0  0  0
   35.4536   -9.3695   35.6310 C   0  0  0  0  0  0  0  0  0  0  0  0
   35.1348   -7.8855   35.8463 C   0  0  0  0  0  0  0  0  0  0  0  0
   33.6569   -7.9195   36.1290 C   0  0  0  0  0  0  0  0  0  0  0  0
   33.5226   -9.1692   36.9162 C   0  0  0  0  0  0  0  0  0  0  0  0
   32.6641   -9.4488   37.7913 O   0  0  0  0  0  0  0  0  0  0  0  0
  1  2  1  0  0  0
  2  3  1  0  0  0
  3 11  1  0  0  0
 11 12  1  0  0  0
 12 13  1  0  0  0
 13 14  2  0  0  0
 13 15  1  0  0  0
 15 16  1  0  0  0
 16 17  1  0  0  0
 17 18  1  0  0  0
 18 19  1  0  0  0
 19 20  2  0  0  0
  3  4  2  0  0  0
  4  5  1  0  0  0
  5  6  2  0  0  0
  6  7  1  0  0  0
  7  8  2  0  0  0
  8  9  1  0  0  0
  9 10  2  0  0  0
 10  2  1  0  0  0
 19 15  1  0  0  0
 10  5  1  0  0  0
M  END
> <minimizedAffinity>
-5.56541

> <CNNscore>
0.5828179717

> <CNNaffinity>
5.5514106750

> <CNN_VS>
3.2354619503

> <CNNaffinity_variance>
0.0883974880

$$$$
[H]c1c([H])c([H])c2c(nc(SC([H])([H])C(=O)N3C(=O)C([H])([H])C([H])([H])C3([H])[H])n2C([H])([H])[H])c1[H]


 20 22  0  0  0  0  0  0  0  0999 V2000
   34.1068  -17.6406   35.2358 C   0  0  0  0  0  0  0  0  0  0  0  0
   35.0693  -16.8512   36.0090 N   0  0  0  0  0  0  0  0  0  0  0  0
   36.2618  -17.1774   36.4874 C   0  0  0  0  0  0  0  0  0  0  0  0
   36.7761  -16.0678   37.0938 N   0  0  0  0  0  0  0  0  0  0  0  0
   35.9102  -15.0422   37.0007 C   0  0  0  0  0  0  0  0  0  0  0  0
   35.9589  -13.7336   37.4458 C   0  0  0  0  0  0  0  0  0  0  0  0
   34.9006  -12.8968   37.1996 C   0  0  0  0  0  0  0  0  0  0  0  0
   33.8026  -13.3921   36.5054 C   0  0  0  0  0  0  0  0  0  0  0  0
   33.7576  -14.6875   36.0662 C   0  0  0  0  0  0  0  0  0  0  0  0
   34.8287  -15.5441   36.3121 C   0  0  0  0  0  0  0  0  0  0  0  0
   37.0925  -18.7132   36.4549 S   0  0  0  0  0  0  0  0  0  0  0  0
   36.1506  -20.1759   36.7358 C   0  0  0  0  0  0  0  0  0  0  0  0
   35.2240  -20.2393   37.8467 C   0  0  0  0  0  0  0  0  0  0  0  0
   34.0348  -19.9267   37.8048 O   0  0  0  0  0  0  0  0  0  0  0  0
   35.7544  -20.7112   39.1060 N   0  0  0  0  0  0  0  0  0  0  0  0
   37.1108  -21.1215   39.3374 C   0  0  0  0  0  0  0  0  0  0  0  0
   37.0584  -21.9198   40.6451 C   0  0  0  0  0  0  0  0  0  0  0  0
   35.9759  -21.2036   41.4070 C   0  0  0  0  0  0  0  0  0  0  0  0
   35.0214  -20.8512   40.3281 C   0  0  0  0  0  0  0  0  0  0  0  0
   33.7771  -20.6910   40.4121 O   0  0  0  0  0  0  0  0  0  0  0  0
  1  2  1  0  0  0
  2  3  1  0  0  0
  3 11  1  0  0  0
 11 12  1  0  0  0
 12 13  1  0  0  0
 13 14  2  0  0  0
 13 15  1  0  0  0
 15 16  1  0  0  0
 16 17  1  0  0  0
 17 18  1  0  0  0
 18 19  1  0  0  0
 19 20  2  0  0  0
  3  4  2  0  0  0
  4  5  1  0  0  0
  5  6  2  0  0  0
  6  7  1  0  0  0
  7  8  2  0  0  0
  8  9  1  0  0  0
  9 10  2  0  0  0
 10  2  1  0  0  0
 19 15  1  0  0  0
 10  5  1  0  0  0
M  END
> <minimizedAffinity>
-5.94968

> <CNNscore>
0.5184218287

> <CNNaffinity>
4.0871472359

> <CNN_VS>
2.1188664436

> <CNNaffinity_variance>
0.6602703333

$$$$
[H]c1c([H])c([H])c2c(nc(SC([H])([H])C(=O)N3C(=O)C([H])([H])C([H])([H])C3([H])[H])n2C([H])([H])[H])c1[H]


 20 22  0  0  0  0  0  0  0  0999 V2000
   35.5667  -18.9781   36.4109 C   0  0  0  0  0  0  0  0  0  0  0  0
   34.9678  -17.6804   36.0870 N   0  0  0  0  0  0  0  0  0  0  0  0
   33.9166  -17.3817   35.3367 C   0  0  0  0  0  0  0  0  0  0  0  0
   33.7436  -16.0288   35.3961 N   0  0  0  0  0  0  0  0  0  0  0  0
   34.6843  -15.4727   36.1811 C   0  0  0  0  0  0  0  0  0  0  0  0
   34.9385  -14.1651   36.5533 C   0  0  0  0  0  0  0  0  0  0  0  0
   35.9951  -13.8928   37.3842 C   0  0  0  0  0  0  0  0  0  0  0  0
   36.7848  -14.9463   37.8305 C   0  0  0  0  0  0  0  0  0  0  0  0
   36.5306  -16.2392   37.4604 C   0  0  0  0  0  0  0  0  0  0  0  0
   35.4590  -16.5244   36.6167 C   0  0  0  0  0  0  0  0  0  0  0  0
   32.9052  -18.4270   34.3702 S   0  0  0  0  0  0  0  0  0  0  0  0
   31.6203  -19.3224   35.1782 C   0  0  0  0  0  0  0  0  0  0  0  0
   31.4879  -20.7489   34.9682 C   0  0  0  0  0  0  0  0  0  0  0  0
   32.3230  -21.4726   34.4273 O   0  0  0  0  0  0  0  0  0  0  0  0
   30.2660  -21.3619   35.4383 N   0  0  0  0  0  0  0  0  0  0  0  0
   29.1882  -20.6757   36.0935 C   0  0  0  0  0  0  0  0  0  0  0  0
   28.3689  -21.7859   36.7615 C   0  0  0  0  0  0  0  0  0  0  0  0
   28.5243  -22.9213   35.7859 C   0  0  0  0  0  0  0  0  0  0  0  0
   29.9260  -22.7489   35.3334 C   0  0  0  0  0  0  0  0  0  0  0  0
   30.7239  -23.6286   34.9205 O   0  0  0  0  0  0  0  0  0  0  0  0
  1  2  1  0  0  0
  2  3  1  0  0  0
  3 11  1  0  0  0
 11 12  1  0  0  0
 12 13  1  0  0  0
 13 14  2  0  0  0
 13 15  1  0  0  0
 15 16  1  0  0  0
 16 17  1  0  0  0
 17 18  1  0  0  0
 18 19  1  0  0  0
 19 20  2  0  0  0
  3  4  2  0  0  0
  4  5  1  0  0  0
  5  6  2  0  0  0
  6  7  1  0  0  0
  7  8  2  0  0  0
  8  9  1  0  0  0
  9 10  2  0  0  0
 10  2  1  0  0  0
 19 15  1  0  0  0
 10  5  1  0  0  0
M  END
> <minimizedAffinity>
-6.39338

> <CNNscore>
0.4913618267

> <CNNaffinity>
4.1297898293

> <CNN_VS>
2.0292210579

> <CNNaffinity_variance>
0.6948608160

$$$$
[H]c1c([H])c([H])c2c(nc(SC([H])([H])C(=O)N3C(=O)C([H])([H])C([H])([H])C3([H])[H])n2C([H])([H])[H])c1[H]


 20 22  0  0  0  0  0  0  0  0999 V2000
   34.6243  -20.3329   36.3568 C   0  0  0  0  0  0  0  0  0  0  0  0
   34.3520  -18.9987   35.8153 N   0  0  0  0  0  0  0  0  0  0  0  0
   33.5030  -18.6092   34.8746 C   0  0  0  0  0  0  0  0  0  0  0  0
   33.5983  -17.2510   34.7753 N   0  0  0  0  0  0  0  0  0  0  0  0
   34.5068  -16.7824   35.6501 C   0  0  0  0  0  0  0  0  0  0  0  0
   34.9614  -15.5072   35.9335 C   0  0  0  0  0  0  0  0  0  0  0  0
   35.9185  -15.3308   36.8998 C   0  0  0  0  0  0  0  0  0  0  0  0
   36.4069  -16.4464   37.5702 C   0  0  0  0  0  0  0  0  0  0  0  0
   35.9550  -17.7070   37.2875 C   0  0  0  0  0  0  0  0  0  0  0  0
   34.9826  -17.8949   36.3073 C   0  0  0  0  0  0  0  0  0  0  0  0
   32.4543  -19.5648   33.8564 S   0  0  0  0  0  0  0  0  0  0  0  0
   31.3455  -20.6949   34.6303 C   0  0  0  0  0  0  0  0  0  0  0  0
   30.2826  -20.2006   35.4803 C   0  0  0  0  0  0  0  0  0  0  0  0
   30.0793  -19.0192   35.7572 O   0  0  0  0  0  0  0  0  0  0  0  0
   29.3925  -21.1896   36.0454 N   0  0  0  0  0  0  0  0  0  0  0  0
   29.4762  -22.6066   35.8285 C   0  0  0  0  0  0  0  0  0  0  0  0
   28.1074  -23.1475   36.2574 C   0  0  0  0  0  0  0  0  0  0  0  0
   27.7445  -22.2229   37.3881 C   0  0  0  0  0  0  0  0  0  0  0  0
   28.2819  -20.9260   36.9099 C   0  0  0  0  0  0  0  0  0  0  0  0
   27.8747  -19.7677   37.1814 O   0  0  0  0  0  0  0  0  0  0  0  0
  1  2  1  0  0  0
  2  3  1  0  0  0
  3 11  1  0  0  0
 11 12  1  0  0  0
 12 13  1  0  0  0
 13 14  2  0  0  0
 13 15  1  0  0  0
 15 16  1  0  0  0
 16 17  1  0  0  0
 17 18  1  0  0  0
 18 19  1  0  0  0
 19 20  2  0  0  0
  3  4  2  0  0  0
  4  5  1  0  0  0
  5  6  2  0  0  0
  6  7  1  0  0  0
  7  8  2  0  0  0
  8  9  1  0  0  0
  9 10  2  0  0  0
 10  2  1  0  0  0
 19 15  1  0  0  0
 10  5  1  0  0  0
M  END
> <minimizedAffinity>
-5.96909

> <CNNscore>
0.4685356915

> <CNNaffinity>
4.0976133347

> <CNN_VS>
1.9198781252

> <CNNaffinity_variance>
0.7063342333

$$$$
[H]c1c([H])c([H])c2c(nc(SC([H])([H])C(=O)N3C(=O)C([H])([H])C([H])([H])C3([H])[H])n2C([H])([H])[H])c1[H]


 20 22  0  0  0  0  0  0  0  0999 V2000
   37.1308  -17.3191   36.6354 C   0  0  0  0  0  0  0  0  0  0  0  0
   35.8132  -16.7917   36.2704 N   0  0  0  0  0  0  0  0  0  0  0  0
   34.7537  -17.4028   35.7593 C   0  0  0  0  0  0  0  0  0  0  0  0
   33.7593  -16.4738   35.6504 N   0  0  0  0  0  0  0  0  0  0  0  0
   34.1893  -15.2772   36.0901 C   0  0  0  0  0  0  0  0  0  0  0  0
   33.5774  -14.0404   36.1847 C   0  0  0  0  0  0  0  0  0  0  0  0
   34.2819  -12.9749   36.6841 C   0  0  0  0  0  0  0  0  0  0  0  0
   35.5992  -13.1708   37.0829 C   0  0  0  0  0  0  0  0  0  0  0  0
   36.2018  -14.3959   36.9880 C   0  0  0  0  0  0  0  0  0  0  0  0
   35.4930  -15.4836   36.4820 C   0  0  0  0  0  0  0  0  0  0  0  0
   34.5676  -19.0590   35.2378 S   0  0  0  0  0  0  0  0  0  0  0  0
   34.6042  -20.3268   36.4613 C   0  0  0  0  0  0  0  0  0  0  0  0
   35.8507  -20.6683   37.1143 C   0  0  0  0  0  0  0  0  0  0  0  0
   36.9362  -20.8110   36.5533 O   0  0  0  0  0  0  0  0  0  0  0  0
   35.8010  -20.8551   38.5469 N   0  0  0  0  0  0  0  0  0  0  0  0
   34.6272  -20.7254   39.3639 C   0  0  0  0  0  0  0  0  0  0  0  0
   35.1618  -20.5848   40.7938 C   0  0  0  0  0  0  0  0  0  0  0  0
   36.3909  -21.4525   40.7564 C   0  0  0  0  0  0  0  0  0  0  0  0
   36.9071  -21.1966   39.3898 C   0  0  0  0  0  0  0  0  0  0  0  0
   38.0958  -21.2534   38.9840 O   0  0  0  0  0  0  0  0  0  0  0  0
  1  2  1  0  0  0
  2  3  1  0  0  0
  3 11  1  0  0  0
 11 12  1  0  0  0
 12 13  1  0  0  0
 13 14  2  0  0  0
 13 15  1  0  0  0
 15 16  1  0  0  0
 16 17  1  0  0  0
 17 18  1  0  0  0
 18 19  1  0  0  0
 19 20  2  0  0  0
  3  4  2  0  0  0
  4  5  1  0  0  0
  5  6  2  0  0  0
  6  7  1  0  0  0
  7  8  2  0  0  0
  8  9  1  0  0  0
  9 10  2  0  0  0
 10  2  1  0  0  0
 19 15  1  0  0  0
 10  5  1  0  0  0
M  END
> <minimizedAffinity>
-5.43081

> <CNNscore>
0.4560354948

> <CNNaffinity>
4.0349736214

> <CNN_VS>
1.8400912285

> <CNNaffinity_variance>
0.5590877533

$$$$
[H]c1c(C([H])([H])[H])c([H])c2c(c1C(F)(F)F)C(=O)N1C([H])([H])C([H])([H])N([H])C([H])([H])[C@@]21[H]


 20 22  0  0  0  0  0  0  0  0999 V2000
   33.0981  -18.0229   34.0641 C   0  0  0  0  0  0  0  0  0  0  0  0
   34.2619  -18.4873   34.8650 C   0  0  0  0  0  0  0  0  0  0  0  0
   35.5172  -18.1765   34.3910 C   0  0  0  0  0  0  0  0  0  0  0  0
   36.6282  -18.5765   35.0839 C   0  0  0  0  0  0  0  0  0  0  0  0
   36.4684  -19.3009   36.2709 C   0  0  0  0  0  0  0  0  0  0  0  0
   35.2323  -19.6232   36.7658 C   0  0  0  0  0  0  0  0  0  0  0  0
   34.1236  -19.2039   36.0420 C   0  0  0  0  0  0  0  0  0  0  0  0
   37.8309  -19.5875   36.7211 C   0  0  0  0  0  0  0  0  0  0  0  0
   38.1105  -20.2197   37.7551 O   0  0  0  0  0  0  0  0  0  0  0  0
   38.7701  -19.0538   35.8300 N   0  0  0  0  0  0  0  0  0  0  0  0
   40.2075  -19.0760   35.7276 C   0  0  0  0  0  0  0  0  0  0  0  0
   40.6359  -19.4633   34.3137 C   0  0  0  0  0  0  0  0  0  0  0  0
   39.9548  -18.6209   33.3839 N   0  0  0  0  0  0  0  0  0  0  0  0
   38.5062  -18.7336   33.4286 C   0  0  0  0  0  0  0  0  0  0  0  0
   38.0479  -18.3457   34.7982 C   0  0  0  0  0  0  0  0  0  0  0  0
   40.2649  -18.7422   32.4016 H   0  0  0  0  0  0  0  0  0  0  0  0
   35.0905  -20.3816   38.0276 C   0  0  0  0  0  0  0  0  0  0  0  0
   35.5563  -19.7446   39.1353 F   0  0  0  0  0  0  0  0  0  0  0  0
   35.6562  -21.6571   37.8868 F   0  0  0  0  0  0  0  0  0  0  0  0
   33.7312  -20.6369   38.2640 F   0  0  0  0  0  0  0  0  0  0  0  0
  1  2  1  0  0  0
  2  3  2  0  0  0
  3  4  1  0  0  0
  4  5  2  0  0  0
  5  6  1  0  0  0
  6 17  1  0  0  0
 17 18  1  0  0  0
 17 19  1  0  0  0
 17 20  1  0  0  0
  6  7  2  0  0  0
  5  8  1  0  0  0
  8  9  2  0  0  0
  8 10  1  0  0  0
 10 11  1  0  0  0
 11 12  1  0  0  0
 12 13  1  0  0  0
 13 14  1  0  0  0
 14 15  1  0  0  0
  7  2  1  0  0  0
 15 10  1  0  0  0
 15  4  1  0  0  0
 13 16  1  0  0  0
M  END
> <minimizedAffinity>
-4.80825

> <CNNscore>
0.6852164268

> <CNNaffinity>
4.0536470413

> <CNN_VS>
2.7776255608

> <CNNaffinity_variance>
0.2523426116

$$$$
[H]c1c(C([H])([H])[H])c([H])c2c(c1C(F)(F)F)C(=O)N1C([H])([H])C([H])([H])N([H])C([H])([H])[C@@]21[H]


 20 22  0  0  0  0  0  0  0  0999 V2000
   35.1338  -20.2265   37.9991 C   0  0  0  0  0  0  0  0  0  0  0  0
   36.5924  -20.2207   37.7092 C   0  0  0  0  0  0  0  0  0  0  0  0
   36.9854  -19.7833   36.4637 C   0  0  0  0  0  0  0  0  0  0  0  0
   38.3146  -19.7548   36.1369 C   0  0  0  0  0  0  0  0  0  0  0  0
   39.2589  -20.1748   37.0810 C   0  0  0  0  0  0  0  0  0  0  0  0
   38.8964  -20.6137   38.3271 C   0  0  0  0  0  0  0  0  0  0  0  0
   37.5412  -20.6313   38.6305 C   0  0  0  0  0  0  0  0  0  0  0  0
   40.5491  -20.0474   36.4024 C   0  0  0  0  0  0  0  0  0  0  0  0
   41.6452  -20.3267   36.9198 O   0  0  0  0  0  0  0  0  0  0  0  0
   40.3778  -19.5703   35.0971 N   0  0  0  0  0  0  0  0  0  0  0  0
   41.2525  -19.3162   33.9802 C   0  0  0  0  0  0  0  0  0  0  0  0
   40.6910  -19.9477   32.7080 C   0  0  0  0  0  0  0  0  0  0  0  0
   39.3357  -19.5276   32.5502 N   0  0  0  0  0  0  0  0  0  0  0  0
   38.4582  -19.9260   33.6386 C   0  0  0  0  0  0  0  0  0  0  0  0
   38.9698  -19.3114   34.9022 C   0  0  0  0  0  0  0  0  0  0  0  0
   38.9054  -19.8240   31.6543 H   0  0  0  0  0  0  0  0  0  0  0  0
   39.9147  -21.0433   39.3099 C   0  0  0  0  0  0  0  0  0  0  0  0
   40.8292  -20.0926   39.6412 F   0  0  0  0  0  0  0  0  0  0  0  0
   40.5306  -22.2264   38.8767 F   0  0  0  0  0  0  0  0  0  0  0  0
   39.2785  -21.4094   40.5057 F   0  0  0  0  0  0  0  0  0  0  0  0
  1  2  1  0  0  0
  2  3  2  0  0  0
  3  4  1  0  0  0
  4  5  2  0  0  0
  5  6  1  0  0  0
  6 17  1  0  0  0
 17 18  1  0  0  0
 17 19  1  0  0  0
 17 20  1  0  0  0
  6  7  2  0  0  0
  5  8  1  0  0  0
  8  9  2  0  0  0
  8 10  1  0  0  0
 10 11  1  0  0  0
 11 12  1  0  0  0
 12 13  1  0  0  0
 13 14  1  0  0  0
 14 15  1  0  0  0
  7  2  1  0  0  0
 15 10  1  0  0  0
 15  4  1  0  0  0
 13 16  1  0  0  0
M  END
> <minimizedAffinity>
-4.51876

> <CNNscore>
0.6452231407

> <CNNaffinity>
3.8737094402

> <CNN_VS>
2.4994070530

> <CNNaffinity_variance>
0.1988737881

$$$$
[H]c1c(C([H])([H])[H])c([H])c2c(c1C(F)(F)F)C(=O)N1C([H])([H])C([H])([H])N([H])C([H])([H])[C@@]21[H]


 20 22  0  0  0  0  0  0  0  0999 V2000
   30.2438  -19.2022   34.7040 C   0  0  0  0  0  0  0  0  0  0  0  0
   31.5516  -19.5241   35.3345 C   0  0  0  0  0  0  0  0  0  0  0  0
   32.6487  -18.8068   34.9115 C   0  0  0  0  0  0  0  0  0  0  0  0
   33.8804  -19.0572   35.4542 C   0  0  0  0  0  0  0  0  0  0  0  0
   34.0051  -20.0464   36.4367 C   0  0  0  0  0  0  0  0  0  0  0  0
   32.9312  -20.7744   36.8768 C   0  0  0  0  0  0  0  0  0  0  0  0
   31.6944  -20.4982   36.3085 C   0  0  0  0  0  0  0  0  0  0  0  0
   35.4312  -20.0718   36.7636 C   0  0  0  0  0  0  0  0  0  0  0  0
   35.9450  -20.8283   37.6066 O   0  0  0  0  0  0  0  0  0  0  0  0
   36.1320  -19.1310   35.9989 N   0  0  0  0  0  0  0  0  0  0  0  0
   37.5179  -18.7644   35.8510 C   0  0  0  0  0  0  0  0  0  0  0  0
   37.8986  -18.7020   34.3732 C   0  0  0  0  0  0  0  0  0  0  0  0
   36.9556  -17.8729   33.6939 N   0  0  0  0  0  0  0  0  0  0  0  0
   35.5860  -18.3563   33.7539 C   0  0  0  0  0  0  0  0  0  0  0  0
   35.1722  -18.4158   35.1897 C   0  0  0  0  0  0  0  0  0  0  0  0
   37.1967  -17.6873   32.7024 H   0  0  0  0  0  0  0  0  0  0  0  0
   33.0883  -21.8078   37.9230 C   0  0  0  0  0  0  0  0  0  0  0  0
   33.5439  -21.3484   39.1194 F   0  0  0  0  0  0  0  0  0  0  0  0
   33.8741  -22.8641   37.4400 F   0  0  0  0  0  0  0  0  0  0  0  0
   31.8424  -22.4005   38.1789 F   0  0  0  0  0  0  0  0  0  0  0  0
  1  2  1  0  0  0
  2  3  2  0  0  0
  3  4  1  0  0  0
  4  5  2  0  0  0
  5  6  1  0  0  0
  6 17  1  0  0  0
 17 18  1  0  0  0
 17 19  1  0  0  0
 17 20  1  0  0  0
  6  7  2  0  0  0
  5  8  1  0  0  0
  8  9  2  0  0  0
  8 10  1  0  0  0
 10 11  1  0  0  0
 11 12  1  0  0  0
 12 13  1  0  0  0
 13 14  1  0  0  0
 14 15  1  0  0  0
  7  2  1  0  0  0
 15 10  1  0  0  0
 15  4  1  0  0  0
 13 16  1  0  0  0
M  END
> <minimizedAffinity>
-4.76712

> <CNNscore>
0.5616713762

> <CNNaffinity>
3.8029487133

> <CNN_VS>
2.1360075474

> <CNNaffinity_variance>
0.4021796286

$$$$
[H]c1c(C([H])([H])[H])c([H])c2c(c1C(F)(F)F)C(=O)N1C([H])([H])C([H])([H])N([H])C([H])([H])[C@@]21[H]


 20 22  0  0  0  0  0  0  0  0999 V2000
   39.1981  -21.5061   40.1502 C   0  0  0  0  0  0  0  0  0  0  0  0
   40.0252  -20.7183   39.1979 C   0  0  0  0  0  0  0  0  0  0  0  0
   39.5796  -20.6330   37.8975 C   0  0  0  0  0  0  0  0  0  0  0  0
   40.2977  -19.9220   36.9737 C   0  0  0  0  0  0  0  0  0  0  0  0
   41.4822  -19.2897   37.3694 C   0  0  0  0  0  0  0  0  0  0  0  0
   41.9484  -19.3573   38.6558 C   0  0  0  0  0  0  0  0  0  0  0  0
   41.1990  -20.0851   39.5710 C   0  0  0  0  0  0  0  0  0  0  0  0
   41.9974  -18.6636   36.1513 C   0  0  0  0  0  0  0  0  0  0  0  0
   43.0466  -17.9981   36.0936 O   0  0  0  0  0  0  0  0  0  0  0  0
   41.1490  -18.9173   35.0664 N   0  0  0  0  0  0  0  0  0  0  0  0
   41.1774  -18.6184   33.6569 C   0  0  0  0  0  0  0  0  0  0  0  0
   40.8831  -19.8742   32.8390 C   0  0  0  0  0  0  0  0  0  0  0  0
   39.6803  -20.4665   33.3295 N   0  0  0  0  0  0  0  0  0  0  0  0
   39.7443  -20.8786   34.7220 C   0  0  0  0  0  0  0  0  0  0  0  0
   40.0165  -19.6683   35.5571 C   0  0  0  0  0  0  0  0  0  0  0  0
   39.3454  -21.2683   32.7633 H   0  0  0  0  0  0  0  0  0  0  0  0
   43.1983  -18.6722   39.0504 C   0  0  0  0  0  0  0  0  0  0  0  0
   43.2138  -17.3312   38.8236 F   0  0  0  0  0  0  0  0  0  0  0  0
   44.3009  -19.3100   38.4636 F   0  0  0  0  0  0  0  0  0  0  0  0
   43.4027  -18.8396   40.4285 F   0  0  0  0  0  0  0  0  0  0  0  0
  1  2  1  0  0  0
  2  3  2  0  0  0
  3  4  1  0  0  0
  4  5  2  0  0  0
  5  6  1  0  0  0
  6 17  1  0  0  0
 17 18  1  0  0  0
 17 19  1  0  0  0
 17 20  1  0  0  0
  6  7  2  0  0  0
  5  8  1  0  0  0
  8  9  2  0  0  0
  8 10  1  0  0  0
 10 11  1  0  0  0
 11 12  1  0  0  0
 12 13  1  0  0  0
 13 14  1  0  0  0
 14 15  1  0  0  0
  7  2  1  0  0  0
 15 10  1  0  0  0
 15  4  1  0  0  0
 13 16  1  0  0  0
M  END
> <minimizedAffinity>
-4.88795

> <CNNscore>
0.5433188677

> <CNNaffinity>
3.5489077568

> <CNN_VS>
1.9281885624

> <CNNaffinity_variance>
0.2393507510

$$$$
[H]c1c(C([H])([H])[H])c([H])c2c(c1C(F)(F)F)C(=O)N1C([H])([H])C([H])([H])N([H])C([H])([H])[C@@]21[H]


 20 22  0  0  0  0  0  0  0  0999 V2000
   44.6219  -15.7614   35.8667 C   0  0  0  0  0  0  0  0  0  0  0  0
   43.7577  -16.9329   36.1706 C   0  0  0  0  0  0  0  0  0  0  0  0
   43.0167  -17.4551   35.1336 C   0  0  0  0  0  0  0  0  0  0  0  0
   42.2018  -18.5337   35.3507 C   0  0  0  0  0  0  0  0  0  0  0  0
   42.1343  -19.0912   36.6328 C   0  0  0  0  0  0  0  0  0  0  0  0
   42.8605  -18.5929   37.6821 C   0  0  0  0  0  0  0  0  0  0  0  0
   43.6786  -17.4987   37.4321 C   0  0  0  0  0  0  0  0  0  0  0  0
   41.1651  -20.1814   36.5166 C   0  0  0  0  0  0  0  0  0  0  0  0
   40.8303  -20.9263   37.4547 O   0  0  0  0  0  0  0  0  0  0  0  0
   40.6704  -20.2678   35.2094 N   0  0  0  0  0  0  0  0  0  0  0  0
   39.6815  -21.0777   34.5437 C   0  0  0  0  0  0  0  0  0  0  0  0
   38.7313  -20.1998   33.7318 C   0  0  0  0  0  0  0  0  0  0  0  0
   39.5064  -19.3428   32.8934 N   0  0  0  0  0  0  0  0  0  0  0  0
   40.3921  -18.4449   33.6161 C   0  0  0  0  0  0  0  0  0  0  0  0
   41.3499  -19.2720   34.4129 C   0  0  0  0  0  0  0  0  0  0  0  0
   38.9415  -18.7834   32.2274 H   0  0  0  0  0  0  0  0  0  0  0  0
   42.7783  -19.2063   39.0254 C   0  0  0  0  0  0  0  0  0  0  0  0
   43.1972  -20.4985   39.0926 F   0  0  0  0  0  0  0  0  0  0  0  0
   41.4846  -19.0530   39.5444 F   0  0  0  0  0  0  0  0  0  0  0  0
   43.5889  -18.4841   39.9144 F   0  0  0  0  0  0  0  0  0  0  0  0
  1  2  1  0  0  0
  2  3  2  0  0  0
  3  4  1  0  0  0
  4  5  2  0  0  0
  5  6  1  0  0  0
  6 17  1  0  0  0
 17 18  1  0  0  0
 17 19  1  0  0  0
 17 20  1  0  0  0
  6  7  2  0  0  0
  5  8  1  0  0  0
  8  9  2  0  0  0
  8 10  1  0  0  0
 10 11  1  0  0  0
 11 12  1  0  0  0
 12 13  1  0  0  0
 13 14  1  0  0  0
 14 15  1  0  0  0
  7  2  1  0  0  0
 15 10  1  0  0  0
 15  4  1  0  0  0
 13 16  1  0  0  0
M  END
> <minimizedAffinity>
-4.91785

> <CNNscore>
0.5172134042

> <CNNaffinity>
3.5372886658

> <CNN_VS>
1.8295331001

> <CNNaffinity_variance>
0.3677489758

$$$$
[H]c1c(C([H])([H])[H])c([H])c2c(c1C(F)(F)F)C(=O)N1C([H])([H])C([H])([H])N([H])C([H])([H])[C@@]21[H]


 20 22  0  0  0  0  0  0  0  0999 V2000
   34.8420  -16.4549   35.9324 C   0  0  0  0  0  0  0  0  0  0  0  0
   35.7994  -17.5644   36.1855 C   0  0  0  0  0  0  0  0  0  0  0  0
   36.9204  -17.6236   35.3875 C   0  0  0  0  0  0  0  0  0  0  0  0
   37.8390  -18.6220   35.5716 C   0  0  0  0  0  0  0  0  0  0  0  0
   37.6212  -19.5735   36.5749 C   0  0  0  0  0  0  0  0  0  0  0  0
   36.5158  -19.5384   37.3834 C   0  0  0  0  0  0  0  0  0  0  0  0
   35.6015  -18.5141   37.1737 C   0  0  0  0  0  0  0  0  0  0  0  0
   38.7563  -20.4914   36.4733 C   0  0  0  0  0  0  0  0  0  0  0  0
   38.9259  -21.4821   37.2058 O   0  0  0  0  0  0  0  0  0  0  0  0
   39.6192  -20.1005   35.4420 N   0  0  0  0  0  0  0  0  0  0  0  0
   40.8223  -20.6385   34.8588 C   0  0  0  0  0  0  0  0  0  0  0  0
   40.7068  -20.6764   33.3364 C   0  0  0  0  0  0  0  0  0  0  0  0
   40.3119  -19.3838   32.8767 N   0  0  0  0  0  0  0  0  0  0  0  0
   39.0242  -18.9392   33.3839 C   0  0  0  0  0  0  0  0  0  0  0  0
   39.1048  -18.8749   34.8758 C   0  0  0  0  0  0  0  0  0  0  0  0
   40.3108  -19.2872   31.8440 H   0  0  0  0  0  0  0  0  0  0  0  0
   36.3139  -20.5506   38.4426 C   0  0  0  0  0  0  0  0  0  0  0  0
   37.3211  -20.6378   39.3524 F   0  0  0  0  0  0  0  0  0  0  0  0
   36.0259  -21.7965   37.8670 F   0  0  0  0  0  0  0  0  0  0  0  0
   35.1552  -20.2359   39.1688 F   0  0  0  0  0  0  0  0  0  0  0  0
  1  2  1  0  0  0
  2  3  2  0  0  0
  3  4  1  0  0  0
  4  5  2  0  0  0
  5  6  1  0  0  0
  6 17  1  0  0  0
 17 18  1  0  0  0
 17 19  1  0  0  0
 17 20  1  0  0  0
  6  7  2  0  0  0
  5  8  1  0  0  0
  8  9  2  0  0  0
  8 10  1  0  0  0
 10 11  1  0  0  0
 11 12  1  0  0  0
 12 13  1  0  0  0
 13 14  1  0  0  0
 14 15  1  0  0  0
  7  2  1  0  0  0
 15 10  1  0  0  0
 15  4  1  0  0  0
 13 16  1  0  0  0
M  END
> <minimizedAffinity>
-4.72190

> <CNNscore>
0.4951410890

> <CNNaffinity>
3.7484519482

> <CNN_VS>
1.8560125828

> <CNNaffinity_variance>
0.2857154906

$$$$
[H]c1c(C([H])([H])[H])c([H])c2c(c1C(F)(F)F)C(=O)N1C([H])([H])C([H])([H])N([H])C([H])([H])[C@@]21[H]


 20 22  0  0  0  0  0  0  0  0999 V2000
   38.4470  -13.2109   37.8783 C   0  0  0  0  0  0  0  0  0  0  0  0
   37.2729  -13.9636   37.3618 C   0  0  0  0  0  0  0  0  0  0  0  0
   37.4715  -15.2827   37.0187 C   0  0  0  0  0  0  0  0  0  0  0  0
   36.4292  -16.0283   36.5369 C   0  0  0  0  0  0  0  0  0  0  0  0
   35.1700  -15.4327   36.3993 C   0  0  0  0  0  0  0  0  0  0  0  0
   34.9439  -14.1235   36.7335 C   0  0  0  0  0  0  0  0  0  0  0  0
   36.0196  -13.3919   37.2198 C   0  0  0  0  0  0  0  0  0  0  0  0
   34.3183  -16.4826   35.8392 C   0  0  0  0  0  0  0  0  0  0  0  0
   33.1120  -16.3401   35.5719 O   0  0  0  0  0  0  0  0  0  0  0  0
   35.0474  -17.6627   35.6473 N   0  0  0  0  0  0  0  0  0  0  0  0
   34.7611  -18.9598   35.0882 C   0  0  0  0  0  0  0  0  0  0  0  0
   35.8446  -19.3614   34.0894 C   0  0  0  0  0  0  0  0  0  0  0  0
   37.1190  -19.2172   34.7166 N   0  0  0  0  0  0  0  0  0  0  0  0
   37.4231  -17.8609   35.1422 C   0  0  0  0  0  0  0  0  0  0  0  0
   36.3885  -17.4382   36.1357 C   0  0  0  0  0  0  0  0  0  0  0  0
   37.9104  -19.5691   34.1461 H   0  0  0  0  0  0  0  0  0  0  0  0
   33.6013  -13.5206   36.5874 C   0  0  0  0  0  0  0  0  0  0  0  0
   33.0073  -13.7282   35.3816 F   0  0  0  0  0  0  0  0  0  0  0  0
   33.6494  -12.1576   36.9139 F   0  0  0  0  0  0  0  0  0  0  0  0
   32.7399  -14.0702   37.5491 F   0  0  0  0  0  0  0  0  0  0  0  0
  1  2  1  0  0  0
  2  3  2  0  0  0
  3  4  1  0  0  0
  4  5  2  0  0  0
  5  6  1  0  0  0
  6 17  1  0  0  0
 17 18  1  0  0  0
 17 19  1  0  0  0
 17 20  1  0  0  0
  6  7  2  0  0  0
  5  8  1  0  0  0
  8  9  2  0  0  0
  8 10  1  0  0  0
 10 11  1  0  0  0
 11 12  1  0  0  0
 12 13  1  0  0  0
 13 14  1  0  0  0
 14 15  1  0  0  0
  7  2  1  0  0  0
 15 10  1  0  0  0
 15  4  1  0  0  0
 13 16  1  0  0  0
M  END
> <minimizedAffinity>
-6.94145

> <CNNscore>
0.4783996940

> <CNNaffinity>
4.1145811081

> <CNN_VS>
1.9684143066

> <CNNaffinity_variance>
0.3415963054

$$$$
[H]c1c(C([H])([H])[H])c([H])c2c(c1C(F)(F)F)C(=O)N1C([H])([H])C([H])([H])N([H])C([H])([H])[C@@]21[H]


 20 22  0  0  0  0  0  0  0  0999 V2000
   28.4712  -22.5580   35.5308 C   0  0  0  0  0  0  0  0  0  0  0  0
   29.8831  -22.2259   35.8596 C   0  0  0  0  0  0  0  0  0  0  0  0
   30.2985  -20.9346   35.6210 C   0  0  0  0  0  0  0  0  0  0  0  0
   31.5870  -20.5676   35.9030 C   0  0  0  0  0  0  0  0  0  0  0  0
   32.4674  -21.5185   36.4323 C   0  0  0  0  0  0  0  0  0  0  0  0
   32.0811  -22.8093   36.6802 C   0  0  0  0  0  0  0  0  0  0  0  0
   30.7681  -23.1526   36.3846 C   0  0  0  0  0  0  0  0  0  0  0  0
   33.7398  -20.8107   36.5781 C   0  0  0  0  0  0  0  0  0  0  0  0
   34.7814  -21.3233   37.0243 O   0  0  0  0  0  0  0  0  0  0  0  0
   33.6210  -19.4835   36.1472 N   0  0  0  0  0  0  0  0  0  0  0  0
   34.5272  -18.3721   36.0035 C   0  0  0  0  0  0  0  0  0  0  0  0
   34.3779  -17.7370   34.6225 C   0  0  0  0  0  0  0  0  0  0  0  0
   32.9971  -17.4522   34.3984 N   0  0  0  0  0  0  0  0  0  0  0  0
   32.1369  -18.6239   34.4161 C   0  0  0  0  0  0  0  0  0  0  0  0
   32.2456  -19.2650   35.7628 C   0  0  0  0  0  0  0  0  0  0  0  0
   32.8135  -16.9215   33.5264 H   0  0  0  0  0  0  0  0  0  0  0  0
   33.0284  -23.7925   37.2487 C   0  0  0  0  0  0  0  0  0  0  0  0
   33.5200  -23.4724   38.4757 F   0  0  0  0  0  0  0  0  0  0  0  0
   34.0558  -24.0550   36.3309 F   0  0  0  0  0  0  0  0  0  0  0  0
   32.3802  -25.0283   37.3957 F   0  0  0  0  0  0  0  0  0  0  0  0
  1  2  1  0  0  0
  2  3  2  0  0  0
  3  4  1  0  0  0
  4  5  2  0  0  0
  5  6  1  0  0  0
  6 17  1  0  0  0
 17 18  1  0  0  0
 17 19  1  0  0  0
 17 20  1  0  0  0
  6  7  2  0  0  0
  5  8  1  0  0  0
  8  9  2  0  0  0
  8 10  1  0  0  0
 10 11  1  0  0  0
 11 12  1  0  0  0
 12 13  1  0  0  0
 13 14  1  0  0  0
 14 15  1  0  0  0
  7  2  1  0  0  0
 15 10  1  0  0  0
 15  4  1  0  0  0
 13 16  1  0  0  0
M  END
> <minimizedAffinity>
-4.36200

> <CNNscore>
0.4760351181

> <CNNaffinity>
3.6059670448

> <CNN_VS>
1.7165669203

> <CNNaffinity_variance>
0.4724459648

$$$$
[H]c1c(C([H])([H])[H])c([H])c2c(c1C(F)(F)F)C(=O)N1C([H])([H])C([H])([H])N([H])C([H])([H])[C@@]21[H]


 20 22  0  0  0  0  0  0  0  0999 V2000
   33.2540  -17.4341   34.1528 C   0  0  0  0  0  0  0  0  0  0  0  0
   32.9124  -18.5992   35.0117 C   0  0  0  0  0  0  0  0  0  0  0  0
   33.8869  -19.0552   35.8717 C   0  0  0  0  0  0  0  0  0  0  0  0
   33.6327  -20.1246   36.6879 C   0  0  0  0  0  0  0  0  0  0  0  0
   32.3775  -20.7417   36.6336 C   0  0  0  0  0  0  0  0  0  0  0  0
   31.3898  -20.3088   35.7886 C   0  0  0  0  0  0  0  0  0  0  0  0
   31.6761  -19.2219   34.9728 C   0  0  0  0  0  0  0  0  0  0  0  0
   32.4605  -21.8444   37.5919 C   0  0  0  0  0  0  0  0  0  0  0  0
   31.5320  -22.6358   37.8340 O   0  0  0  0  0  0  0  0  0  0  0  0
   33.7241  -21.8837   38.1943 N   0  0  0  0  0  0  0  0  0  0  0  0
   34.3797  -22.7568   39.1350 C   0  0  0  0  0  0  0  0  0  0  0  0
   35.7636  -23.1506   38.6228 C   0  0  0  0  0  0  0  0  0  0  0  0
   36.4740  -21.9636   38.2699 N   0  0  0  0  0  0  0  0  0  0  0  0
   35.8441  -21.1832   37.2177 C   0  0  0  0  0  0  0  0  0  0  0  0
   34.4885  -20.7655   37.6914 C   0  0  0  0  0  0  0  0  0  0  0  0
   37.4646  -22.1282   38.0104 H   0  0  0  0  0  0  0  0  0  0  0  0
   30.0686  -20.9727   35.7572 C   0  0  0  0  0  0  0  0  0  0  0  0
   29.4019  -20.9801   36.9427 F   0  0  0  0  0  0  0  0  0  0  0  0
   30.1930  -22.2639   35.2244 F   0  0  0  0  0  0  0  0  0  0  0  0
   29.2375  -20.3067   34.8437 F   0  0  0  0  0  0  0  0  0  0  0  0
  1  2  1  0  0  0
  2  3  2  0  0  0
  3  4  1  0  0  0
  4  5  2  0  0  0
  5  6  1  0  0  0
  6 17  1  0  0  0
 17 18  1  0  0  0
 17 19  1  0  0  0
 17 20  1  0  0  0
  6  7  2  0  0  0
  5  8  1  0  0  0
  8  9  2  0  0  0
  8 10  1  0  0  0
 10 11  1  0  0  0
 11 12  1  0  0  0
 12 13  1  0  0  0
 13 14  1  0  0  0
 14 15  1  0  0  0
  7  2  1  0  0  0
 15 10  1  0  0  0
 15  4  1  0  0  0
 13 16  1  0  0  0
M  END
> <minimizedAffinity>
-4.20490

> <CNNscore>
0.4554666281

> <CNNaffinity>
3.3498306274

> <CNN_VS>
1.5257360935

> <CNNaffinity_variance>
0.5561784506

$$$$
[H]N=C1c2c([H])nc([H])nc2C([H])([H])[C@](c2c([H])c(-c3c([H])nc([H])c(Cl)c3[H])c([H])c([H])c2F)(C([H])([H])[H])N1[H]


 28 31  0  0  0  0  0  0  0  0999 V2000
   33.9188  -21.3673   37.2248 C   0  0  0  0  0  0  0  0  0  0  0  0
   35.0437  -20.4023   37.0028 C   0  0  0  0  0  0  0  0  0  0  0  0
   35.5409  -19.9572   38.3563 C   0  0  0  0  0  0  0  0  0  0  0  0
   36.0434  -21.1034   39.1378 C   0  0  0  0  0  0  0  0  0  0  0  0
   35.9626  -21.0807   40.4835 N   0  0  0  0  0  0  0  0  0  0  0  0
   36.4165  -22.0909   41.2457 C   0  0  0  0  0  0  0  0  0  0  0  0
   36.9633  -23.1429   40.6133 N   0  0  0  0  0  0  0  0  0  0  0  0
   37.0661  -23.2106   39.2608 C   0  0  0  0  0  0  0  0  0  0  0  0
   36.6018  -22.1793   38.4932 C   0  0  0  0  0  0  0  0  0  0  0  0
   36.6824  -22.2249   37.0176 C   0  0  0  0  0  0  0  0  0  0  0  0
   37.1980  -23.2019   36.3995 N   0  0  0  0  0  0  0  0  0  0  0  0
   36.1460  -21.0938   36.3460 N   0  0  0  0  0  0  0  0  0  0  0  0
   37.6161  -24.0609   36.7535 H   0  0  0  0  0  0  0  0  0  0  0  0
   36.5542  -20.8116   35.4300 H   0  0  0  0  0  0  0  0  0  0  0  0
   34.6200  -19.2085   36.2266 C   0  0  0  0  0  0  0  0  0  0  0  0
   34.9799  -17.9274   36.5816 C   0  0  0  0  0  0  0  0  0  0  0  0
   34.5673  -16.8227   35.8408 C   0  0  0  0  0  0  0  0  0  0  0  0
   33.7793  -17.0464   34.7283 C   0  0  0  0  0  0  0  0  0  0  0  0
   33.3949  -18.3301   34.3379 C   0  0  0  0  0  0  0  0  0  0  0  0
   33.8332  -19.3876   35.1101 C   0  0  0  0  0  0  0  0  0  0  0  0
   33.4818  -20.6612   34.7654 F   0  0  0  0  0  0  0  0  0  0  0  0
   34.9333  -15.4583   36.1964 C   0  0  0  0  0  0  0  0  0  0  0  0
   34.0021  -14.4499   36.0882 C   0  0  0  0  0  0  0  0  0  0  0  0
   34.3127  -13.1677   36.4091 N   0  0  0  0  0  0  0  0  0  0  0  0
   35.5374  -12.8107   36.8477 C   0  0  0  0  0  0  0  0  0  0  0  0
   36.4903  -13.7903   36.9677 C   0  0  0  0  0  0  0  0  0  0  0  0
   38.0799  -13.3464   37.5330 Cl  0  0  0  0  0  0  0  0  0  0  0  0
   36.1925  -15.1161   36.6431 C   0  0  0  0  0  0  0  0  0  0  0  0
  2  1  1  0  0  0
  2 15  1  0  0  0
 15 16  2  0  0  0
 16 17  1  0  0  0
 17 22  1  0  0  0
 22 23  2  0  0  0
 23 24  1  0  0  0
 24 25  2  0  0  0
 25 26  1  0  0  0
 26 27  1  0  0  0
 26 28  2  0  0  0
 17 18  2  0  0  0
 18 19  1  0  0  0
 19 20  2  0  0  0
 20 21  1  0  0  0
  2  3  1  0  0  0
  3  4  1  0  0  0
  4  5  2  0  0  0
  5  6  1  0  0  0
  6  7  2  0  0  0
  7  8  1  0  0  0
  8  9  2  0  0  0
  9 10  1  0  0  0
 10 11  2  0  0  0
 10 12  1  0  0  0
 12  2  1  0  0  0
 20 15  1  0  0  0
  9  4  1  0  0  0
 28 22  1  0  0  0
 11 13  1  0  0  0
 12 14  1  0  0  0
M  END
> <minimizedAffinity>
-7.08990

> <CNNscore>
0.4950554371

> <CNNaffinity>
5.4622006416

> <CNN_VS>
2.7040920258

> <CNNaffinity_variance>
0.4201565385

$$$$
[H]N=C1c2c([H])nc([H])nc2C([H])([H])[C@](c2c([H])c(-c3c([H])nc([H])c(Cl)c3[H])c([H])c([H])c2F)(C([H])([H])[H])N1[H]


 28 31  0  0  0  0  0  0  0  0999 V2000
   35.3805  -20.7266   38.7133 C   0  0  0  0  0  0  0  0  0  0  0  0
   35.9650  -20.3836   37.3768 C   0  0  0  0  0  0  0  0  0  0  0  0
   37.4050  -19.9870   37.5933 C   0  0  0  0  0  0  0  0  0  0  0  0
   38.1769  -21.0993   38.1797 C   0  0  0  0  0  0  0  0  0  0  0  0
   39.2269  -20.8328   38.9825 N   0  0  0  0  0  0  0  0  0  0  0  0
   39.9732  -21.8062   39.5329 C   0  0  0  0  0  0  0  0  0  0  0  0
   39.6341  -23.0760   39.2530 N   0  0  0  0  0  0  0  0  0  0  0  0
   38.5852  -23.3929   38.4507 C   0  0  0  0  0  0  0  0  0  0  0  0
   37.8314  -22.3971   37.8953 C   0  0  0  0  0  0  0  0  0  0  0  0
   36.6728  -22.7044   37.0297 C   0  0  0  0  0  0  0  0  0  0  0  0
   36.3373  -23.8918   36.7470 N   0  0  0  0  0  0  0  0  0  0  0  0
   35.9688  -21.5738   36.5354 N   0  0  0  0  0  0  0  0  0  0  0  0
   36.7513  -24.7795   37.0272 H   0  0  0  0  0  0  0  0  0  0  0  0
   35.4936  -21.6412   35.6108 H   0  0  0  0  0  0  0  0  0  0  0  0
   35.2484  -19.2618   36.7170 C   0  0  0  0  0  0  0  0  0  0  0  0
   35.6059  -17.9443   36.8993 C   0  0  0  0  0  0  0  0  0  0  0  0
   34.9166  -16.9088   36.2734 C   0  0  0  0  0  0  0  0  0  0  0  0
   33.8532  -17.2397   35.4559 C   0  0  0  0  0  0  0  0  0  0  0  0
   33.4621  -18.5631   35.2472 C   0  0  0  0  0  0  0  0  0  0  0  0
   34.1819  -19.5483   35.8935 C   0  0  0  0  0  0  0  0  0  0  0  0
   33.8349  -20.8573   35.7183 F   0  0  0  0  0  0  0  0  0  0  0  0
   35.2742  -15.5079   36.4513 C   0  0  0  0  0  0  0  0  0  0  0  0
   34.3508  -14.5254   36.1728 C   0  0  0  0  0  0  0  0  0  0  0  0
   34.6540  -13.2108   36.3255 N   0  0  0  0  0  0  0  0  0  0  0  0
   35.8636  -12.7950   36.7543 C   0  0  0  0  0  0  0  0  0  0  0  0
   36.8084  -13.7474   37.0413 C   0  0  0  0  0  0  0  0  0  0  0  0
   38.3786  -13.2276   37.5963 Cl  0  0  0  0  0  0  0  0  0  0  0  0
   36.5179  -15.1056   36.8912 C   0  0  0  0  0  0  0  0  0  0  0  0
  2  1  1  0  0  0
  2 15  1  0  0  0
 15 16  2  0  0  0
 16 17  1  0  0  0
 17 22  1  0  0  0
 22 23  2  0  0  0
 23 24  1  0  0  0
 24 25  2  0  0  0
 25 26  1  0  0  0
 26 27  1  0  0  0
 26 28  2  0  0  0
 17 18  2  0  0  0
 18 19  1  0  0  0
 19 20  2  0  0  0
 20 21  1  0  0  0
  2  3  1  0  0  0
  3  4  1  0  0  0
  4  5  2  0  0  0
  5  6  1  0  0  0
  6  7  2  0  0  0
  7  8  1  0  0  0
  8  9  2  0  0  0
  9 10  1  0  0  0
 10 11  2  0  0  0
 10 12  1  0  0  0
 12  2  1  0  0  0
 20 15  1  0  0  0
  9  4  1  0  0  0
 28 22  1  0  0  0
 11 13  1  0  0  0
 12 14  1  0  0  0
M  END
> <minimizedAffinity>
-6.91497

> <CNNscore>
0.4486185908

> <CNNaffinity>
5.5575456619

> <CNN_VS>
2.4932184219

> <CNNaffinity_variance>
0.1292853802

$$$$
[H]N=C1c2c([H])nc([H])nc2C([H])([H])[C@](c2c([H])c(-c3c([H])nc([H])c(Cl)c3[H])c([H])c([H])c2F)(C([H])([H])[H])N1[H]


 28 31  0  0  0  0  0  0  0  0999 V2000
   32.6501  -20.6407   36.8543 C   0  0  0  0  0  0  0  0  0  0  0  0
   32.4318  -20.0418   35.4981 C   0  0  0  0  0  0  0  0  0  0  0  0
   32.4196  -21.1690   34.4947 C   0  0  0  0  0  0  0  0  0  0  0  0
   31.3255  -22.1173   34.7787 C   0  0  0  0  0  0  0  0  0  0  0  0
   31.4679  -23.4179   34.4526 N   0  0  0  0  0  0  0  0  0  0  0  0
   30.4990  -24.3227   34.6759 C   0  0  0  0  0  0  0  0  0  0  0  0
   29.3636  -23.8829   35.2444 N   0  0  0  0  0  0  0  0  0  0  0  0
   29.1749  -22.5831   35.5903 C   0  0  0  0  0  0  0  0  0  0  0  0
   30.1652  -21.6697   35.3599 C   0  0  0  0  0  0  0  0  0  0  0  0
   30.0014  -20.2496   35.7375 C   0  0  0  0  0  0  0  0  0  0  0  0
   28.9396  -19.8103   36.2687 N   0  0  0  0  0  0  0  0  0  0  0  0
   31.1164  -19.4152   35.4567 N   0  0  0  0  0  0  0  0  0  0  0  0
   28.0771  -20.2923   36.5169 H   0  0  0  0  0  0  0  0  0  0  0  0
   30.9509  -18.4103   35.2378 H   0  0  0  0  0  0  0  0  0  0  0  0
   33.4984  -19.0762   35.1278 C   0  0  0  0  0  0  0  0  0  0  0  0
   33.6960  -17.8937   35.8059 C   0  0  0  0  0  0  0  0  0  0  0  0
   34.7000  -17.0017   35.4380 C   0  0  0  0  0  0  0  0  0  0  0  0
   35.5020  -17.3360   34.3640 C   0  0  0  0  0  0  0  0  0  0  0  0
   35.3318  -18.5250   33.6532 C   0  0  0  0  0  0  0  0  0  0  0  0
   34.3204  -19.3713   34.0625 C   0  0  0  0  0  0  0  0  0  0  0  0
   34.1176  -20.5459   33.3966 F   0  0  0  0  0  0  0  0  0  0  0  0
   34.9280  -15.7447   36.1381 C   0  0  0  0  0  0  0  0  0  0  0  0
   33.8739  -14.8898   36.3701 C   0  0  0  0  0  0  0  0  0  0  0  0
   34.0539  -13.7098   37.0171 N   0  0  0  0  0  0  0  0  0  0  0  0
   35.2619  -13.3105   37.4655 C   0  0  0  0  0  0  0  0  0  0  0  0
   36.3350  -14.1379   37.2516 C   0  0  0  0  0  0  0  0  0  0  0  0
   37.9050  -13.6370   37.8242 Cl  0  0  0  0  0  0  0  0  0  0  0  0
   36.1726  -15.3566   36.5881 C   0  0  0  0  0  0  0  0  0  0  0  0
  2  1  1  0  0  0
  2 15  1  0  0  0
 15 16  2  0  0  0
 16 17  1  0  0  0
 17 22  1  0  0  0
 22 23  2  0  0  0
 23 24  1  0  0  0
 24 25  2  0  0  0
 25 26  1  0  0  0
 26 27  1  0  0  0
 26 28  2  0  0  0
 17 18  2  0  0  0
 18 19  1  0  0  0
 19 20  2  0  0  0
 20 21  1  0  0  0
  2  3  1  0  0  0
  3  4  1  0  0  0
  4  5  2  0  0  0
  5  6  1  0  0  0
  6  7  2  0  0  0
  7  8  1  0  0  0
  8  9  2  0  0  0
  9 10  1  0  0  0
 10 11  2  0  0  0
 10 12  1  0  0  0
 12  2  1  0  0  0
 20 15  1  0  0  0
  9  4  1  0  0  0
 28 22  1  0  0  0
 11 13  1  0  0  0
 12 14  1  0  0  0
M  END
> <minimizedAffinity>
-7.58211

> <CNNscore>
0.4438868463

> <CNNaffinity>
5.5589642525

> <CNN_VS>
2.4675509930

> <CNNaffinity_variance>
0.1662423760

$$$$
[H]N=C1c2c([H])nc([H])nc2C([H])([H])[C@](c2c([H])c(-c3c([H])nc([H])c(Cl)c3[H])c([H])c([H])c2F)(C([H])([H])[H])N1[H]


 28 31  0  0  0  0  0  0  0  0999 V2000
   33.4607  -12.7782   38.7757 C   0  0  0  0  0  0  0  0  0  0  0  0
   33.5283  -12.7907   37.2787 C   0  0  0  0  0  0  0  0  0  0  0  0
   32.1198  -12.9354   36.7565 C   0  0  0  0  0  0  0  0  0  0  0  0
   31.2779  -11.8023   37.1861 C   0  0  0  0  0  0  0  0  0  0  0  0
   29.9555  -11.9867   37.3736 N   0  0  0  0  0  0  0  0  0  0  0  0
   29.1393  -10.9875   37.7515 C   0  0  0  0  0  0  0  0  0  0  0  0
   29.6923   -9.7774   37.9399 N   0  0  0  0  0  0  0  0  0  0  0  0
   31.0185   -9.5440   37.7637 C   0  0  0  0  0  0  0  0  0  0  0  0
   31.8414  -10.5656   37.3796 C   0  0  0  0  0  0  0  0  0  0  0  0
   33.2926  -10.3525   37.1934 C   0  0  0  0  0  0  0  0  0  0  0  0
   33.8357   -9.2211   37.3592 N   0  0  0  0  0  0  0  0  0  0  0  0
   34.0303  -11.5048   36.8108 N   0  0  0  0  0  0  0  0  0  0  0  0
   33.4287   -8.3259   37.6253 H   0  0  0  0  0  0  0  0  0  0  0  0
   34.8825  -11.3851   36.2237 H   0  0  0  0  0  0  0  0  0  0  0  0
   34.3543  -13.9109   36.7591 C   0  0  0  0  0  0  0  0  0  0  0  0
   33.8016  -15.0555   36.2286 C   0  0  0  0  0  0  0  0  0  0  0  0
   34.5961  -16.0947   35.7511 C   0  0  0  0  0  0  0  0  0  0  0  0
   35.9679  -15.9474   35.8235 C   0  0  0  0  0  0  0  0  0  0  0  0
   36.5636  -14.8021   36.3542 C   0  0  0  0  0  0  0  0  0  0  0  0
   35.7266  -13.8042   36.8126 C   0  0  0  0  0  0  0  0  0  0  0  0
   36.2656  -12.6657   37.3396 F   0  0  0  0  0  0  0  0  0  0  0  0
   34.0359  -17.3154   35.1871 C   0  0  0  0  0  0  0  0  0  0  0  0
   34.8396  -18.1650   34.4605 C   0  0  0  0  0  0  0  0  0  0  0  0
   34.3472  -19.3088   33.9194 N   0  0  0  0  0  0  0  0  0  0  0  0
   33.0567  -19.6758   34.0606 C   0  0  0  0  0  0  0  0  0  0  0  0
   32.2271  -18.8526   34.7789 C   0  0  0  0  0  0  0  0  0  0  0  0
   30.5549  -19.3114   34.9710 Cl  0  0  0  0  0  0  0  0  0  0  0  0
   32.7126  -17.6709   35.3443 C   0  0  0  0  0  0  0  0  0  0  0  0
  2  1  1  0  0  0
  2 15  1  0  0  0
 15 16  2  0  0  0
 16 17  1  0  0  0
 17 22  1  0  0  0
 22 23  2  0  0  0
 23 24  1  0  0  0
 24 25  2  0  0  0
 25 26  1  0  0  0
 26 27  1  0  0  0
 26 28  2  0  0  0
 17 18  2  0  0  0
 18 19  1  0  0  0
 19 20  2  0  0  0
 20 21  1  0  0  0
  2  3  1  0  0  0
  3  4  1  0  0  0
  4  5  2  0  0  0
  5  6  1  0  0  0
  6  7  2  0  0  0
  7  8  1  0  0  0
  8  9  2  0  0  0
  9 10  1  0  0  0
 10 11  2  0  0  0
 10 12  1  0  0  0
 12  2  1  0  0  0
 20 15  1  0  0  0
  9  4  1  0  0  0
 28 22  1  0  0  0
 11 13  1  0  0  0
 12 14  1  0  0  0
M  END
> <minimizedAffinity>
-8.71155

> <CNNscore>
0.4198482037

> <CNNaffinity>
6.5121140480

> <CNN_VS>
2.7340993881

> <CNNaffinity_variance>
0.0773031339

$$$$
[H]N=C1c2c([H])nc([H])nc2C([H])([H])[C@](c2c([H])c(-c3c([H])nc([H])c(Cl)c3[H])c([H])c([H])c2F)(C([H])([H])[H])N1[H]


 28 31  0  0  0  0  0  0  0  0999 V2000
   35.2976  -16.9474   34.4745 C   0  0  0  0  0  0  0  0  0  0  0  0
   34.5406  -17.3009   35.7185 C   0  0  0  0  0  0  0  0  0  0  0  0
   35.4747  -17.1241   36.8905 C   0  0  0  0  0  0  0  0  0  0  0  0
   35.9345  -15.7259   36.9936 C   0  0  0  0  0  0  0  0  0  0  0  0
   37.1497  -15.4594   37.5132 N   0  0  0  0  0  0  0  0  0  0  0  0
   37.6138  -14.2043   37.6432 C   0  0  0  0  0  0  0  0  0  0  0  0
   36.8145  -13.2056   37.2318 N   0  0  0  0  0  0  0  0  0  0  0  0
   35.5834  -13.4253   36.7020 C   0  0  0  0  0  0  0  0  0  0  0  0
   35.1193  -14.7045   36.5731 C   0  0  0  0  0  0  0  0  0  0  0  0
   33.7910  -14.9827   35.9865 C   0  0  0  0  0  0  0  0  0  0  0  0
   33.0179  -14.0590   35.5971 N   0  0  0  0  0  0  0  0  0  0  0  0
   33.4439  -16.3574   35.8967 N   0  0  0  0  0  0  0  0  0  0  0  0
   33.1398  -13.0477   35.6074 H   0  0  0  0  0  0  0  0  0  0  0  0
   32.4400  -16.6286   35.9603 H   0  0  0  0  0  0  0  0  0  0  0  0
   34.0462  -18.7018   35.7010 C   0  0  0  0  0  0  0  0  0  0  0  0
   34.4425  -19.6394   36.6288 C   0  0  0  0  0  0  0  0  0  0  0  0
   33.9688  -20.9484   36.5901 C   0  0  0  0  0  0  0  0  0  0  0  0
   33.0815  -21.2868   35.5867 C   0  0  0  0  0  0  0  0  0  0  0  0
   32.6573  -20.3638   34.6295 C   0  0  0  0  0  0  0  0  0  0  0  0
   33.1599  -19.0807   34.7169 C   0  0  0  0  0  0  0  0  0  0  0  0
   32.7722  -18.1444   33.8018 F   0  0  0  0  0  0  0  0  0  0  0  0
   34.3738  -21.9584   37.5585 C   0  0  0  0  0  0  0  0  0  0  0  0
   34.5222  -23.2679   37.1598 C   0  0  0  0  0  0  0  0  0  0  0  0
   34.8956  -24.2331   38.0387 N   0  0  0  0  0  0  0  0  0  0  0  0
   35.1405  -23.9689   39.3387 C   0  0  0  0  0  0  0  0  0  0  0  0
   35.0024  -22.6742   39.7707 C   0  0  0  0  0  0  0  0  0  0  0  0
   35.3144  -22.3145   41.4491 Cl  0  0  0  0  0  0  0  0  0  0  0  0
   34.6191  -21.6652   38.8837 C   0  0  0  0  0  0  0  0  0  0  0  0
  2  1  1  0  0  0
  2 15  1  0  0  0
 15 16  2  0  0  0
 16 17  1  0  0  0
 17 22  1  0  0  0
 22 23  2  0  0  0
 23 24  1  0  0  0
 24 25  2  0  0  0
 25 26  1  0  0  0
 26 27  1  0  0  0
 26 28  2  0  0  0
 17 18  2  0  0  0
 18 19  1  0  0  0
 19 20  2  0  0  0
 20 21  1  0  0  0
  2  3  1  0  0  0
  3  4  1  0  0  0
  4  5  2  0  0  0
  5  6  1  0  0  0
  6  7  2  0  0  0
  7  8  1  0  0  0
  8  9  2  0  0  0
  9 10  1  0  0  0
 10 11  2  0  0  0
 10 12  1  0  0  0
 12  2  1  0  0  0
 20 15  1  0  0  0
  9  4  1  0  0  0
 28 22  1  0  0  0
 11 13  1  0  0  0
 12 14  1  0  0  0
M  END
> <minimizedAffinity>
-6.39546

> <CNNscore>
0.4053218365

> <CNNaffinity>
5.7227644920

> <CNN_VS>
2.3195614815

> <CNNaffinity_variance>
0.1525990665

$$$$
[H]N=C1c2c([H])nc([H])nc2C([H])([H])[C@](c2c([H])c(-c3c([H])nc([H])c(Cl)c3[H])c([H])c([H])c2F)(C([H])([H])[H])N1[H]


 28 31  0  0  0  0  0  0  0  0999 V2000
   33.1882  -13.5269   35.6353 C   0  0  0  0  0  0  0  0  0  0  0  0
   34.2887  -13.7901   36.6177 C   0  0  0  0  0  0  0  0  0  0  0  0
   35.4197  -12.8409   36.3058 C   0  0  0  0  0  0  0  0  0  0  0  0
   34.9846  -11.4376   36.4420 C   0  0  0  0  0  0  0  0  0  0  0  0
   35.5582  -10.4840   35.6807 N   0  0  0  0  0  0  0  0  0  0  0  0
   35.2105   -9.1886   35.7726 C   0  0  0  0  0  0  0  0  0  0  0  0
   34.2564   -8.8679   36.6628 N   0  0  0  0  0  0  0  0  0  0  0  0
   33.6503   -9.7934   37.4505 C   0  0  0  0  0  0  0  0  0  0  0  0
   34.0096  -11.1084   37.3506 C   0  0  0  0  0  0  0  0  0  0  0  0
   33.3606  -12.1457   38.1805 C   0  0  0  0  0  0  0  0  0  0  0  0
   32.4639  -11.8677   39.0297 N   0  0  0  0  0  0  0  0  0  0  0  0
   33.8188  -13.4724   37.9604 N   0  0  0  0  0  0  0  0  0  0  0  0
   32.0522  -10.9718   39.2861 H   0  0  0  0  0  0  0  0  0  0  0  0
   33.7998  -14.1495   38.7519 H   0  0  0  0  0  0  0  0  0  0  0  0
   34.7932  -15.1854   36.5416 C   0  0  0  0  0  0  0  0  0  0  0  0
   34.0946  -16.1932   35.9146 C   0  0  0  0  0  0  0  0  0  0  0  0
   34.5856  -17.4951   35.8593 C   0  0  0  0  0  0  0  0  0  0  0  0
   35.8047  -17.7536   36.4557 C   0  0  0  0  0  0  0  0  0  0  0  0
   36.5410  -16.7581   37.0998 C   0  0  0  0  0  0  0  0  0  0  0  0
   36.0051  -15.4857   37.1237 C   0  0  0  0  0  0  0  0  0  0  0  0
   36.6909  -14.4802   37.7425 F   0  0  0  0  0  0  0  0  0  0  0  0
   33.8653  -18.5783   35.2036 C   0  0  0  0  0  0  0  0  0  0  0  0
   34.4023  -19.1800   34.0877 C   0  0  0  0  0  0  0  0  0  0  0  0
   33.7546  -20.1900   33.4522 N   0  0  0  0  0  0  0  0  0  0  0  0
   32.5610  -20.6579   33.8721 C   0  0  0  0  0  0  0  0  0  0  0  0
   31.9965  -20.0815   34.9815 C   0  0  0  0  0  0  0  0  0  0  0  0
   30.4528  -20.6737   35.5382 Cl  0  0  0  0  0  0  0  0  0  0  0  0
   32.6454  -19.0409   35.6508 C   0  0  0  0  0  0  0  0  0  0  0  0
  2  1  1  0  0  0
  2 15  1  0  0  0
 15 16  2  0  0  0
 16 17  1  0  0  0
 17 22  1  0  0  0
 22 23  2  0  0  0
 23 24  1  0  0  0
 24 25  2  0  0  0
 25 26  1  0  0  0
 26 27  1  0  0  0
 26 28  2  0  0  0
 17 18  2  0  0  0
 18 19  1  0  0  0
 19 20  2  0  0  0
 20 21  1  0  0  0
  2  3  1  0  0  0
  3  4  1  0  0  0
  4  5  2  0  0  0
  5  6  1  0  0  0
  6  7  2  0  0  0
  7  8  1  0  0  0
  8  9  2  0  0  0
  9 10  1  0  0  0
 10 11  2  0  0  0
 10 12  1  0  0  0
 12  2  1  0  0  0
 20 15  1  0  0  0
  9  4  1  0  0  0
 28 22  1  0  0  0
 11 13  1  0  0  0
 12 14  1  0  0  0
M  END
> <minimizedAffinity>
-9.07619

> <CNNscore>
0.3726329207

> <CNNaffinity>
6.3687605858

> <CNN_VS>
2.3732099533

> <CNNaffinity_variance>
0.0948290974

$$$$
[H]N=C1c2c([H])nc([H])nc2C([H])([H])[C@](c2c([H])c(-c3c([H])nc([H])c(Cl)c3[H])c([H])c([H])c2F)(C([H])([H])[H])N1[H]


 28 31  0  0  0  0  0  0  0  0999 V2000
   35.7722  -13.6159   38.0935 C   0  0  0  0  0  0  0  0  0  0  0  0
   35.1217  -14.0278   36.8079 C   0  0  0  0  0  0  0  0  0  0  0  0
   33.6312  -13.8579   36.9722 C   0  0  0  0  0  0  0  0  0  0  0  0
   33.2873  -12.4503   37.2508 C   0  0  0  0  0  0  0  0  0  0  0  0
   32.2003  -12.1634   37.9950 N   0  0  0  0  0  0  0  0  0  0  0  0
   31.8326  -10.8995   38.2686 C   0  0  0  0  0  0  0  0  0  0  0  0
   32.5959   -9.9132   37.7684 N   0  0  0  0  0  0  0  0  0  0  0  0
   33.6996  -10.1536   37.0143 C   0  0  0  0  0  0  0  0  0  0  0  0
   34.0665  -11.4416   36.7409 C   0  0  0  0  0  0  0  0  0  0  0  0
   35.2704  -11.7416   35.9368 C   0  0  0  0  0  0  0  0  0  0  0  0
   36.0018  -10.8302   35.4502 N   0  0  0  0  0  0  0  0  0  0  0  0
   35.5430  -13.1228   35.7459 N   0  0  0  0  0  0  0  0  0  0  0  0
   35.9192   -9.8164   35.5071 H   0  0  0  0  0  0  0  0  0  0  0  0
   36.0235  -13.4252   34.8724 H   0  0  0  0  0  0  0  0  0  0  0  0
   35.4113  -15.4416   36.4550 C   0  0  0  0  0  0  0  0  0  0  0  0
   34.4606  -16.2816   35.9189 C   0  0  0  0  0  0  0  0  0  0  0  0
   34.7540  -17.6049   35.5997 C   0  0  0  0  0  0  0  0  0  0  0  0
   36.0371  -18.0592   35.8365 C   0  0  0  0  0  0  0  0  0  0  0  0
   37.0265  -17.2373   36.3781 C   0  0  0  0  0  0  0  0  0  0  0  0
   36.6786  -15.9346   36.6753 C   0  0  0  0  0  0  0  0  0  0  0  0
   37.6148  -15.0945   37.2065 F   0  0  0  0  0  0  0  0  0  0  0  0
   33.7659  -18.5132   35.0334 C   0  0  0  0  0  0  0  0  0  0  0  0
   34.1566  -19.4647   34.1181 C   0  0  0  0  0  0  0  0  0  0  0  0
   33.2596  -20.3241   33.5699 N   0  0  0  0  0  0  0  0  0  0  0  0
   31.9485  -20.2965   33.8863 C   0  0  0  0  0  0  0  0  0  0  0  0
   31.5240  -19.3609   34.7954 C   0  0  0  0  0  0  0  0  0  0  0  0
   29.8316  -19.3105   35.2158 Cl  0  0  0  0  0  0  0  0  0  0  0  0
   32.4297  -18.4669   35.3718 C   0  0  0  0  0  0  0  0  0  0  0  0
  2  1  1  0  0  0
  2 15  1  0  0  0
 15 16  2  0  0  0
 16 17  1  0  0  0
 17 22  1  0  0  0
 22 23  2  0  0  0
 23 24  1  0  0  0
 24 25  2  0  0  0
 25 26  1  0  0  0
 26 27  1  0  0  0
 26 28  2  0  0  0
 17 18  2  0  0  0
 18 19  1  0  0  0
 19 20  2  0  0  0
 20 21  1  0  0  0
  2  3  1  0  0  0
  3  4  1  0  0  0
  4  5  2  0  0  0
  5  6  1  0  0  0
  6  7  2  0  0  0
  7  8  1  0  0  0
  8  9  2  0  0  0
  9 10  1  0  0  0
 10 11  2  0  0  0
 10 12  1  0  0  0
 12  2  1  0  0  0
 20 15  1  0  0  0
  9  4  1  0  0  0
 28 22  1  0  0  0
 11 13  1  0  0  0
 12 14  1  0  0  0
M  END
> <minimizedAffinity>
-7.74901

> <CNNscore>
0.3617546260

> <CNNaffinity>
6.2557859421

> <CNN_VS>
2.2630596161

> <CNNaffinity_variance>
0.1602520645

$$$$
[H]N=C1c2c([H])nc([H])nc2C([H])([H])[C@](c2c([H])c(-c3c([H])nc([H])c(Cl)c3[H])c([H])c([H])c2F)(C([H])([H])[H])N1[H]


 28 31  0  0  0  0  0  0  0  0999 V2000
   33.2964  -20.5057   34.3443 C   0  0  0  0  0  0  0  0  0  0  0  0
   33.5364  -20.6562   35.8158 C   0  0  0  0  0  0  0  0  0  0  0  0
   32.2934  -20.1908   36.5340 C   0  0  0  0  0  0  0  0  0  0  0  0
   31.1262  -21.0102   36.1552 C   0  0  0  0  0  0  0  0  0  0  0  0
   29.8947  -20.4613   36.1623 N   0  0  0  0  0  0  0  0  0  0  0  0
   28.7952  -21.1643   35.8393 C   0  0  0  0  0  0  0  0  0  0  0  0
   28.9647  -22.4542   35.5032 N   0  0  0  0  0  0  0  0  0  0  0  0
   30.1849  -23.0500   35.4815 C   0  0  0  0  0  0  0  0  0  0  0  0
   31.2978  -22.3280   35.8110 C   0  0  0  0  0  0  0  0  0  0  0  0
   32.6440  -22.9387   35.7832 C   0  0  0  0  0  0  0  0  0  0  0  0
   32.8285  -24.1527   35.4756 N   0  0  0  0  0  0  0  0  0  0  0  0
   33.7117  -22.0684   36.1310 N   0  0  0  0  0  0  0  0  0  0  0  0
   32.1609  -24.8763   35.2135 H   0  0  0  0  0  0  0  0  0  0  0  0
   34.5587  -22.4679   36.5873 H   0  0  0  0  0  0  0  0  0  0  0  0
   34.6952  -19.8535   36.2850 C   0  0  0  0  0  0  0  0  0  0  0  0
   34.7012  -18.4764   36.2618 C   0  0  0  0  0  0  0  0  0  0  0  0
   35.8009  -17.7449   36.7030 C   0  0  0  0  0  0  0  0  0  0  0  0
   36.8980  -18.4426   37.1700 C   0  0  0  0  0  0  0  0  0  0  0  0
   36.9281  -19.8375   37.2086 C   0  0  0  0  0  0  0  0  0  0  0  0
   35.8097  -20.5104   36.7583 C   0  0  0  0  0  0  0  0  0  0  0  0
   35.7946  -21.8756   36.7781 F   0  0  0  0  0  0  0  0  0  0  0  0
   35.8321  -16.2886   36.6872 C   0  0  0  0  0  0  0  0  0  0  0  0
   34.7587  -15.5866   36.1865 C   0  0  0  0  0  0  0  0  0  0  0  0
   34.7582  -14.2292   36.1552 N   0  0  0  0  0  0  0  0  0  0  0  0
   35.7971  -13.4972   36.6078 C   0  0  0  0  0  0  0  0  0  0  0  0
   36.8838  -14.1641   37.1140 C   0  0  0  0  0  0  0  0  0  0  0  0
   38.2367  -13.2334   37.7032 Cl  0  0  0  0  0  0  0  0  0  0  0  0
   36.9057  -15.5604   37.1557 C   0  0  0  0  0  0  0  0  0  0  0  0
  2  1  1  0  0  0
  2 15  1  0  0  0
 15 16  2  0  0  0
 16 17  1  0  0  0
 17 22  1  0  0  0
 22 23  2  0  0  0
 23 24  1  0  0  0
 24 25  2  0  0  0
 25 26  1  0  0  0
 26 27  1  0  0  0
 26 28  2  0  0  0
 17 18  2  0  0  0
 18 19  1  0  0  0
 19 20  2  0  0  0
 20 21  1  0  0  0
  2  3  1  0  0  0
  3  4  1  0  0  0
  4  5  2  0  0  0
  5  6  1  0  0  0
  6  7  2  0  0  0
  7  8  1  0  0  0
  8  9  2  0  0  0
  9 10  1  0  0  0
 10 11  2  0  0  0
 10 12  1  0  0  0
 12  2  1  0  0  0
 20 15  1  0  0  0
  9  4  1  0  0  0
 28 22  1  0  0  0
 11 13  1  0  0  0
 12 14  1  0  0  0
M  END
> <minimizedAffinity>
-7.91481

> <CNNscore>
0.3509745598

> <CNNaffinity>
5.3686270714

> <CNN_VS>
1.8842514753

> <CNNaffinity_variance>
0.2461934090

$$$$
[H]N=C1c2c([H])nc([H])nc2C([H])([H])[C@](c2c([H])c(-c3c([H])nc([H])c(Cl)c3[H])c([H])c([H])c2F)(C([H])([H])[H])N1[H]


 28 31  0  0  0  0  0  0  0  0999 V2000
   35.5294  -17.8060   34.5661 C   0  0  0  0  0  0  0  0  0  0  0  0
   34.9428  -17.5702   35.9248 C   0  0  0  0  0  0  0  0  0  0  0  0
   33.4412  -17.5386   35.7776 C   0  0  0  0  0  0  0  0  0  0  0  0
   32.9342  -18.8223   35.2559 C   0  0  0  0  0  0  0  0  0  0  0  0
   31.8144  -18.8422   34.5052 N   0  0  0  0  0  0  0  0  0  0  0  0
   31.3005  -19.9838   34.0152 C   0  0  0  0  0  0  0  0  0  0  0  0
   31.9492  -21.1251   34.3022 N   0  0  0  0  0  0  0  0  0  0  0  0
   33.0802  -21.1544   35.0535 C   0  0  0  0  0  0  0  0  0  0  0  0
   33.5961  -19.9891   35.5476 C   0  0  0  0  0  0  0  0  0  0  0  0
   34.8341  -19.9806   36.3560 C   0  0  0  0  0  0  0  0  0  0  0  0
   35.4595  -21.0427   36.6442 N   0  0  0  0  0  0  0  0  0  0  0  0
   35.2664  -18.6985   36.7890 N   0  0  0  0  0  0  0  0  0  0  0  0
   35.2597  -22.0125   36.4045 H   0  0  0  0  0  0  0  0  0  0  0  0
   35.7867  -18.6196   37.6881 H   0  0  0  0  0  0  0  0  0  0  0  0
   35.3973  -16.2883   36.5225 C   0  0  0  0  0  0  0  0  0  0  0  0
   34.5590  -15.2077   36.6851 C   0  0  0  0  0  0  0  0  0  0  0  0
   35.0085  -14.0142   37.2443 C   0  0  0  0  0  0  0  0  0  0  0  0
   36.3312  -13.9403   37.6365 C   0  0  0  0  0  0  0  0  0  0  0  0
   37.2099  -15.0144   37.4876 C   0  0  0  0  0  0  0  0  0  0  0  0
   36.7091  -16.1726   36.9269 C   0  0  0  0  0  0  0  0  0  0  0  0
   37.5327  -17.2491   36.7623 F   0  0  0  0  0  0  0  0  0  0  0  0
   34.1422  -12.8572   37.4255 C   0  0  0  0  0  0  0  0  0  0  0  0
   32.8763  -13.0243   37.9405 C   0  0  0  0  0  0  0  0  0  0  0  0
   32.0437  -11.9667   38.1188 N   0  0  0  0  0  0  0  0  0  0  0  0
   32.4038  -10.7049   37.8058 C   0  0  0  0  0  0  0  0  0  0  0  0
   33.6587  -10.5015   37.2902 C   0  0  0  0  0  0  0  0  0  0  0  0
   34.1410   -8.8760   36.8791 Cl  0  0  0  0  0  0  0  0  0  0  0  0
   34.5317  -11.5752   37.0984 C   0  0  0  0  0  0  0  0  0  0  0  0
  2  1  1  0  0  0
  2 15  1  0  0  0
 15 16  2  0  0  0
 16 17  1  0  0  0
 17 22  1  0  0  0
 22 23  2  0  0  0
 23 24  1  0  0  0
 24 25  2  0  0  0
 25 26  1  0  0  0
 26 27  1  0  0  0
 26 28  2  0  0  0
 17 18  2  0  0  0
 18 19  1  0  0  0
 19 20  2  0  0  0
 20 21  1  0  0  0
  2  3  1  0  0  0
  3  4  1  0  0  0
  4  5  2  0  0  0
  5  6  1  0  0  0
  6  7  2  0  0  0
  7  8  1  0  0  0
  8  9  2  0  0  0
  9 10  1  0  0  0
 10 11  2  0  0  0
 10 12  1  0  0  0
 12  2  1  0  0  0
 20 15  1  0  0  0
  9  4  1  0  0  0
 28 22  1  0  0  0
 11 13  1  0  0  0
 12 14  1  0  0  0
M  END
> <minimizedAffinity>
-8.80746

> <CNNscore>
0.3249073625

> <CNNaffinity>
5.8755435944

> <CNN_VS>
1.9090074301

> <CNNaffinity_variance>
0.1102144718

$$$$
[H]/C(C(=O)/C([H])=C(\[H])c1c([H])c([H])c(F)c([H])c1[H])=C(/[H])c1c([H])c([H])c(F)c([H])c1[H]


 20 21  0  0  0  0  0  0  0  0999 V2000
   34.7996  -19.4551   33.4804 O   0  0  0  0  0  0  0  0  0  0  0  0
   34.1642  -19.0016   34.5514 C   0  0  0  0  0  0  0  0  0  0  0  0
   32.9832  -19.7220   34.8295 C   0  0  0  0  0  0  0  0  0  0  0  0
   32.6830  -20.9840   34.8016 C   0  0  0  0  0  0  0  0  0  0  0  0
   31.3480  -21.5191   35.1413 C   0  0  0  0  0  0  0  0  0  0  0  0
   30.3579  -20.5992   35.5118 C   0  0  0  0  0  0  0  0  0  0  0  0
   29.0857  -20.9849   35.8467 C   0  0  0  0  0  0  0  0  0  0  0  0
   28.7672  -22.3102   35.8198 C   0  0  0  0  0  0  0  0  0  0  0  0
   27.5006  -22.7024   36.1525 F   0  0  0  0  0  0  0  0  0  0  0  0
   29.7347  -23.2248   35.4564 C   0  0  0  0  0  0  0  0  0  0  0  0
   31.0249  -22.8254   35.1176 C   0  0  0  0  0  0  0  0  0  0  0  0
   34.8096  -17.9133   35.1605 C   0  0  0  0  0  0  0  0  0  0  0  0
   34.3270  -16.7947   35.6026 C   0  0  0  0  0  0  0  0  0  0  0  0
   35.1949  -15.7769   36.2147 C   0  0  0  0  0  0  0  0  0  0  0  0
   35.0363  -14.4389   36.1066 C   0  0  0  0  0  0  0  0  0  0  0  0
   35.8929  -13.5089   36.7105 C   0  0  0  0  0  0  0  0  0  0  0  0
   36.9529  -13.9583   37.4539 C   0  0  0  0  0  0  0  0  0  0  0  0
   37.8210  -13.1186   38.0656 F   0  0  0  0  0  0  0  0  0  0  0  0
   37.1296  -15.3325   37.5746 C   0  0  0  0  0  0  0  0  0  0  0  0
   36.2857  -16.2243   36.9796 C   0  0  0  0  0  0  0  0  0  0  0  0
  1  2  2  0  0  0
  2  3  1  0  0  0
  3  4  2  0  0  0
  4  5  1  0  0  0
  5  6  2  0  0  0
  6  7  1  0  0  0
  7  8  2  0  0  0
  8  9  1  0  0  0
  8 10  1  0  0  0
 10 11  2  0  0  0
  2 12  1  0  0  0
 12 13  2  0  0  0
 13 14  1  0  0  0
 14 15  2  0  0  0
 15 16  1  0  0  0
 16 17  2  0  0  0
 17 18  1  0  0  0
 17 19  1  0  0  0
 19 20  2  0  0  0
 11  5  1  0  0  0
 20 14  1  0  0  0
M  END
> <minimizedAffinity>
-6.88193

> <CNNscore>
0.5565989614

> <CNNaffinity>
4.1464805603

> <CNN_VS>
2.3079266548

> <CNNaffinity_variance>
0.6067464948

$$$$
[H]/C(C(=O)/C([H])=C(\[H])c1c([H])c([H])c(F)c([H])c1[H])=C(/[H])c1c([H])c([H])c(F)c([H])c1[H]


 20 21  0  0  0  0  0  0  0  0999 V2000
   37.1107  -22.0126   37.7767 O   0  0  0  0  0  0  0  0  0  0  0  0
   37.1058  -20.8047   37.2312 C   0  0  0  0  0  0  0  0  0  0  0  0
   38.3606  -20.1646   37.3147 C   0  0  0  0  0  0  0  0  0  0  0  0
   39.5817  -20.6013   37.3527 C   0  0  0  0  0  0  0  0  0  0  0  0
   40.7666  -19.7227   37.4427 C   0  0  0  0  0  0  0  0  0  0  0  0
   41.0547  -18.9105   36.3376 C   0  0  0  0  0  0  0  0  0  0  0  0
   42.1280  -18.0580   36.3128 C   0  0  0  0  0  0  0  0  0  0  0  0
   42.9478  -17.9943   37.4002 C   0  0  0  0  0  0  0  0  0  0  0  0
   44.0201  -17.1466   37.3828 F   0  0  0  0  0  0  0  0  0  0  0  0
   42.6733  -18.7898   38.4941 C   0  0  0  0  0  0  0  0  0  0  0  0
   41.5811  -19.6534   38.5118 C   0  0  0  0  0  0  0  0  0  0  0  0
   35.8586  -20.4414   36.6981 C   0  0  0  0  0  0  0  0  0  0  0  0
   34.6820  -20.4485   37.2413 C   0  0  0  0  0  0  0  0  0  0  0  0
   33.4913  -20.0208   36.4910 C   0  0  0  0  0  0  0  0  0  0  0  0
   33.3722  -18.8697   35.7926 C   0  0  0  0  0  0  0  0  0  0  0  0
   32.2134  -18.5077   35.0928 C   0  0  0  0  0  0  0  0  0  0  0  0
   31.1330  -19.3507   35.1042 C   0  0  0  0  0  0  0  0  0  0  0  0
   29.9813  -19.0669   34.4514 F   0  0  0  0  0  0  0  0  0  0  0  0
   31.2399  -20.5393   35.8184 C   0  0  0  0  0  0  0  0  0  0  0  0
   32.3761  -20.8762   36.4944 C   0  0  0  0  0  0  0  0  0  0  0  0
  1  2  2  0  0  0
  2  3  1  0  0  0
  3  4  2  0  0  0
  4  5  1  0  0  0
  5  6  2  0  0  0
  6  7  1  0  0  0
  7  8  2  0  0  0
  8  9  1  0  0  0
  8 10  1  0  0  0
 10 11  2  0  0  0
  2 12  1  0  0  0
 12 13  2  0  0  0
 13 14  1  0  0  0
 14 15  2  0  0  0
 15 16  1  0  0  0
 16 17  2  0  0  0
 17 18  1  0  0  0
 17 19  1  0  0  0
 19 20  2  0  0  0
 11  5  1  0  0  0
 20 14  1  0  0  0
M  END
> <minimizedAffinity>
-4.61589

> <CNNscore>
0.5401617289

> <CNNaffinity>
3.7775321007

> <CNN_VS>
2.0404782295

> <CNNaffinity_variance>
0.3620880246

$$$$
[H]/C(C(=O)/C([H])=C(\[H])c1c([H])c([H])c(F)c([H])c1[H])=C(/[H])c1c([H])c([H])c(F)c([H])c1[H]


 20 21  0  0  0  0  0  0  0  0999 V2000
   34.9425  -19.0472   34.0293 O   0  0  0  0  0  0  0  0  0  0  0  0
   33.9188  -18.6462   34.7693 C   0  0  0  0  0  0  0  0  0  0  0  0
   34.0619  -17.3174   35.2222 C   0  0  0  0  0  0  0  0  0  0  0  0
   35.0402  -16.6641   35.7696 C   0  0  0  0  0  0  0  0  0  0  0  0
   34.9581  -15.2439   36.1696 C   0  0  0  0  0  0  0  0  0  0  0  0
   33.6922  -14.6428   36.1644 C   0  0  0  0  0  0  0  0  0  0  0  0
   33.5002  -13.3321   36.5172 C   0  0  0  0  0  0  0  0  0  0  0  0
   34.5767  -12.5819   36.8874 C   0  0  0  0  0  0  0  0  0  0  0  0
   34.3932  -11.2740   37.2405 F   0  0  0  0  0  0  0  0  0  0  0  0
   35.8281  -13.1638   36.8962 C   0  0  0  0  0  0  0  0  0  0  0  0
   36.0152  -14.4959   36.5364 C   0  0  0  0  0  0  0  0  0  0  0  0
   32.9317  -19.6315   34.9320 C   0  0  0  0  0  0  0  0  0  0  0  0
   31.6687  -19.5149   35.1982 C   0  0  0  0  0  0  0  0  0  0  0  0
   30.8027  -20.6970   35.3275 C   0  0  0  0  0  0  0  0  0  0  0  0
   29.4835  -20.6781   35.6212 C   0  0  0  0  0  0  0  0  0  0  0  0
   28.7010  -21.8351   35.7333 C   0  0  0  0  0  0  0  0  0  0  0  0
   29.2842  -23.0598   35.5387 C   0  0  0  0  0  0  0  0  0  0  0  0
   28.5910  -24.2191   35.6309 F   0  0  0  0  0  0  0  0  0  0  0  0
   30.6411  -23.0960   35.2357 C   0  0  0  0  0  0  0  0  0  0  0  0
   31.3883  -21.9593   35.1304 C   0  0  0  0  0  0  0  0  0  0  0  0
  1  2  2  0  0  0
  2  3  1  0  0  0
  3  4  2  0  0  0
  4  5  1  0  0  0
  5  6  2  0  0  0
  6  7  1  0  0  0
  7  8  2  0  0  0
  8  9  1  0  0  0
  8 10  1  0  0  0
 10 11  2  0  0  0
  2 12  1  0  0  0
 12 13  2  0  0  0
 13 14  1  0  0  0
 14 15  2  0  0  0
 15 16  1  0  0  0
 16 17  2  0  0  0
 17 18  1  0  0  0
 17 19  1  0  0  0
 19 20  2  0  0  0
 11  5  1  0  0  0
 20 14  1  0  0  0
M  END
> <minimizedAffinity>
-6.92650

> <CNNscore>
0.4661647975

> <CNNaffinity>
4.2143845558

> <CNN_VS>
1.9645977020

> <CNNaffinity_variance>
0.5540043712

$$$$
[H]/C(C(=O)/C([H])=C(\[H])c1c([H])c([H])c(F)c([H])c1[H])=C(/[H])c1c([H])c([H])c(F)c([H])c1[H]


 20 21  0  0  0  0  0  0  0  0999 V2000
   38.6916  -19.0943   33.7600 O   0  0  0  0  0  0  0  0  0  0  0  0
   38.2119  -19.2098   34.9900 C   0  0  0  0  0  0  0  0  0  0  0  0
   39.2147  -19.1066   35.9774 C   0  0  0  0  0  0  0  0  0  0  0  0
   40.5038  -19.2526   35.9553 C   0  0  0  0  0  0  0  0  0  0  0  0
   41.3697  -19.0915   37.1419 C   0  0  0  0  0  0  0  0  0  0  0  0
   42.4983  -18.2709   37.0121 C   0  0  0  0  0  0  0  0  0  0  0  0
   43.3694  -18.0511   38.0475 C   0  0  0  0  0  0  0  0  0  0  0  0
   43.1337  -18.6503   39.2492 C   0  0  0  0  0  0  0  0  0  0  0  0
   43.9979  -18.4359   40.2865 F   0  0  0  0  0  0  0  0  0  0  0  0
   42.0250  -19.4604   39.3882 C   0  0  0  0  0  0  0  0  0  0  0  0
   41.1447  -19.6789   38.3317 C   0  0  0  0  0  0  0  0  0  0  0  0
   36.8222  -19.4074   35.0277 C   0  0  0  0  0  0  0  0  0  0  0  0
   35.8838  -18.8958   34.2946 C   0  0  0  0  0  0  0  0  0  0  0  0
   34.4711  -19.2456   34.5080 C   0  0  0  0  0  0  0  0  0  0  0  0
   33.6215  -19.7024   33.5611 C   0  0  0  0  0  0  0  0  0  0  0  0
   32.2812  -20.0221   33.8160 C   0  0  0  0  0  0  0  0  0  0  0  0
   31.7860  -19.8710   35.0849 C   0  0  0  0  0  0  0  0  0  0  0  0
   30.5025  -20.1598   35.4045 F   0  0  0  0  0  0  0  0  0  0  0  0
   32.6478  -19.4018   36.0704 C   0  0  0  0  0  0  0  0  0  0  0  0
   33.9505  -19.0952   35.8047 C   0  0  0  0  0  0  0  0  0  0  0  0
  1  2  2  0  0  0
  2  3  1  0  0  0
  3  4  2  0  0  0
  4  5  1  0  0  0
  5  6  2  0  0  0
  6  7  1  0  0  0
  7  8  2  0  0  0
  8  9  1  0  0  0
  8 10  1  0  0  0
 10 11  2  0  0  0
  2 12  1  0  0  0
 12 13  2  0  0  0
 13 14  1  0  0  0
 14 15  2  0  0  0
 15 16  1  0  0  0
 16 17  2  0  0  0
 17 18  1  0  0  0
 17 19  1  0  0  0
 19 20  2  0  0  0
 11  5  1  0  0  0
 20 14  1  0  0  0
M  END
> <minimizedAffinity>
-5.28782

> <CNNscore>
0.4238104522

> <CNNaffinity>
3.9415569305

> <CNN_VS>
1.6704729795

> <CNNaffinity_variance>
0.2407712489

$$$$
[H]/C(C(=O)/C([H])=C(\[H])c1c([H])c([H])c(F)c([H])c1[H])=C(/[H])c1c([H])c([H])c(F)c([H])c1[H]


 20 21  0  0  0  0  0  0  0  0999 V2000
   32.7952  -18.0281   33.8782 O   0  0  0  0  0  0  0  0  0  0  0  0
   33.3838  -18.4181   34.9997 C   0  0  0  0  0  0  0  0  0  0  0  0
   33.0235  -19.7295   35.3760 C   0  0  0  0  0  0  0  0  0  0  0  0
   31.9871  -20.2307   35.9745 C   0  0  0  0  0  0  0  0  0  0  0  0
   31.8243  -21.6694   36.2699 C   0  0  0  0  0  0  0  0  0  0  0  0
   31.9467  -22.5669   35.2005 C   0  0  0  0  0  0  0  0  0  0  0  0
   31.8145  -23.9220   35.3603 C   0  0  0  0  0  0  0  0  0  0  0  0
   31.5546  -24.4196   36.6027 C   0  0  0  0  0  0  0  0  0  0  0  0
   31.4215  -25.7699   36.7699 F   0  0  0  0  0  0  0  0  0  0  0  0
   31.4321  -23.5447   37.6630 C   0  0  0  0  0  0  0  0  0  0  0  0
   31.5676  -22.1694   37.4928 C   0  0  0  0  0  0  0  0  0  0  0  0
   34.2269  -17.4411   35.5531 C   0  0  0  0  0  0  0  0  0  0  0  0
   34.0355  -16.1709   35.7258 C   0  0  0  0  0  0  0  0  0  0  0  0
   35.0681  -15.3185   36.3348 C   0  0  0  0  0  0  0  0  0  0  0  0
   35.0907  -13.9673   36.3066 C   0  0  0  0  0  0  0  0  0  0  0  0
   36.0995  -13.1995   36.9036 C   0  0  0  0  0  0  0  0  0  0  0  0
   37.1259  -13.8320   37.5551 C   0  0  0  0  0  0  0  0  0  0  0  0
   38.1341  -13.1557   38.1545 F   0  0  0  0  0  0  0  0  0  0  0  0
   37.1170  -15.2222   37.5929 C   0  0  0  0  0  0  0  0  0  0  0  0
   36.1265  -15.9544   37.0060 C   0  0  0  0  0  0  0  0  0  0  0  0
  1  2  2  0  0  0
  2  3  1  0  0  0
  3  4  2  0  0  0
  4  5  1  0  0  0
  5  6  2  0  0  0
  6  7  1  0  0  0
  7  8  2  0  0  0
  8  9  1  0  0  0
  8 10  1  0  0  0
 10 11  2  0  0  0
  2 12  1  0  0  0
 12 13  2  0  0  0
 13 14  1  0  0  0
 14 15  2  0  0  0
 15 16  1  0  0  0
 16 17  2  0  0  0
 17 18  1  0  0  0
 17 19  1  0  0  0
 19 20  2  0  0  0
 11  5  1  0  0  0
 20 14  1  0  0  0
M  END
> <minimizedAffinity>
-6.02224

> <CNNscore>
0.4074262977

> <CNNaffinity>
4.0180745125

> <CNN_VS>
1.6370692253

> <CNNaffinity_variance>
0.3425664008

$$$$
[H]/C(C(=O)/C([H])=C(\[H])c1c([H])c([H])c(F)c([H])c1[H])=C(/[H])c1c([H])c([H])c(F)c([H])c1[H]


 20 21  0  0  0  0  0  0  0  0999 V2000
   35.3827  -17.2265   34.7243 O   0  0  0  0  0  0  0  0  0  0  0  0
   35.3343  -18.5472   34.6258 C   0  0  0  0  0  0  0  0  0  0  0  0
   36.5779  -19.1127   34.2724 C   0  0  0  0  0  0  0  0  0  0  0  0
   37.7291  -19.1739   34.8677 C   0  0  0  0  0  0  0  0  0  0  0  0
   38.9187  -19.8343   34.2910 C   0  0  0  0  0  0  0  0  0  0  0  0
   39.2115  -21.1338   34.7264 C   0  0  0  0  0  0  0  0  0  0  0  0
   40.2895  -21.8396   34.2583 C   0  0  0  0  0  0  0  0  0  0  0  0
   41.1094  -21.2609   33.3356 C   0  0  0  0  0  0  0  0  0  0  0  0
   42.1863  -21.9586   32.8642 F   0  0  0  0  0  0  0  0  0  0  0  0
   40.8303  -19.9815   32.8998 C   0  0  0  0  0  0  0  0  0  0  0  0
   39.7334  -19.2707   33.3800 C   0  0  0  0  0  0  0  0  0  0  0  0
   34.0623  -19.0778   34.8945 C   0  0  0  0  0  0  0  0  0  0  0  0
   33.6473  -19.7922   35.8931 C   0  0  0  0  0  0  0  0  0  0  0  0
   32.2518  -20.2495   35.9778 C   0  0  0  0  0  0  0  0  0  0  0  0
   31.7953  -21.2411   36.7748 C   0  0  0  0  0  0  0  0  0  0  0  0
   30.4527  -21.6399   36.8187 C   0  0  0  0  0  0  0  0  0  0  0  0
   29.5385  -21.0042   36.0198 C   0  0  0  0  0  0  0  0  0  0  0  0
   28.2259  -21.3358   36.0094 F   0  0  0  0  0  0  0  0  0  0  0  0
   29.9927  -19.9815   35.1940 C   0  0  0  0  0  0  0  0  0  0  0  0
   31.3040  -19.6060   35.1637 C   0  0  0  0  0  0  0  0  0  0  0  0
  1  2  2  0  0  0
  2  3  1  0  0  0
  3  4  2  0  0  0
  4  5  1  0  0  0
  5  6  2  0  0  0
  6  7  1  0  0  0
  7  8  2  0  0  0
  8  9  1  0  0  0
  8 10  1  0  0  0
 10 11  2  0  0  0
  2 12  1  0  0  0
 12 13  2  0  0  0
 13 14  1  0  0  0
 14 15  2  0  0  0
 15 16  1  0  0  0
 16 17  2  0  0  0
 17 18  1  0  0  0
 17 19  1  0  0  0
 19 20  2  0  0  0
 11  5  1  0  0  0
 20 14  1  0  0  0
M  END
> <minimizedAffinity>
-4.75994

> <CNNscore>
0.3976893723

> <CNNaffinity>
3.9549508095

> <CNN_VS>
1.5728418827

> <CNNaffinity_variance>
0.2175254375

$$$$
[H]/C(C(=O)/C([H])=C(\[H])c1c([H])c([H])c(F)c([H])c1[H])=C(/[H])c1c([H])c([H])c(F)c([H])c1[H]


 20 21  0  0  0  0  0  0  0  0999 V2000
   34.2260  -18.7703   35.5504 O   0  0  0  0  0  0  0  0  0  0  0  0
   35.1249  -19.5242   36.1670 C   0  0  0  0  0  0  0  0  0  0  0  0
   34.5492  -20.3801   37.1300 C   0  0  0  0  0  0  0  0  0  0  0  0
   33.4231  -21.0217   37.1907 C   0  0  0  0  0  0  0  0  0  0  0  0
   33.0258  -21.8792   38.3268 C   0  0  0  0  0  0  0  0  0  0  0  0
   33.7560  -21.7555   39.5165 C   0  0  0  0  0  0  0  0  0  0  0  0
   33.4742  -22.5009   40.6320 C   0  0  0  0  0  0  0  0  0  0  0  0
   32.4473  -23.3965   40.5874 C   0  0  0  0  0  0  0  0  0  0  0  0
   32.1602  -24.1435   41.6957 F   0  0  0  0  0  0  0  0  0  0  0  0
   31.7215  -23.5265   39.4207 C   0  0  0  0  0  0  0  0  0  0  0  0
   32.0138  -22.7657   38.2916 C   0  0  0  0  0  0  0  0  0  0  0  0
   36.4375  -19.2991   35.7221 C   0  0  0  0  0  0  0  0  0  0  0  0
   37.5575  -19.8114   36.1257 C   0  0  0  0  0  0  0  0  0  0  0  0
   38.8381  -19.4292   35.5111 C   0  0  0  0  0  0  0  0  0  0  0  0
   39.9769  -19.1402   36.1794 C   0  0  0  0  0  0  0  0  0  0  0  0
   41.1737  -18.7805   35.5456 C   0  0  0  0  0  0  0  0  0  0  0  0
   41.2131  -18.7123   34.1774 C   0  0  0  0  0  0  0  0  0  0  0  0
   42.3334  -18.3719   33.4976 F   0  0  0  0  0  0  0  0  0  0  0  0
   40.0493  -19.0068   33.4753 C   0  0  0  0  0  0  0  0  0  0  0  0
   38.8922  -19.3554   34.1087 C   0  0  0  0  0  0  0  0  0  0  0  0
  1  2  2  0  0  0
  2  3  1  0  0  0
  3  4  2  0  0  0
  4  5  1  0  0  0
  5  6  2  0  0  0
  6  7  1  0  0  0
  7  8  2  0  0  0
  8  9  1  0  0  0
  8 10  1  0  0  0
 10 11  2  0  0  0
  2 12  1  0  0  0
 12 13  2  0  0  0
 13 14  1  0  0  0
 14 15  2  0  0  0
 15 16  1  0  0  0
 16 17  2  0  0  0
 17 18  1  0  0  0
 17 19  1  0  0  0
 19 20  2  0  0  0
 11  5  1  0  0  0
 20 14  1  0  0  0
M  END
> <minimizedAffinity>
-3.38213

> <CNNscore>
0.3856271803

> <CNNaffinity>
3.6859779358

> <CNN_VS>
1.4214133024

> <CNNaffinity_variance>
0.1566170752

$$$$
[H]/C(C(=O)/C([H])=C(\[H])c1c([H])c([H])c(F)c([H])c1[H])=C(/[H])c1c([H])c([H])c(F)c([H])c1[H]


 20 21  0  0  0  0  0  0  0  0999 V2000
   36.9762  -17.5684   33.8428 O   0  0  0  0  0  0  0  0  0  0  0  0
   36.8437  -18.8547   34.1330 C   0  0  0  0  0  0  0  0  0  0  0  0
   38.0791  -19.5360   34.1632 C   0  0  0  0  0  0  0  0  0  0  0  0
   38.4140  -20.7603   34.4325 C   0  0  0  0  0  0  0  0  0  0  0  0
   39.8049  -21.2584   34.3989 C   0  0  0  0  0  0  0  0  0  0  0  0
   40.8322  -20.3186   34.5580 C   0  0  0  0  0  0  0  0  0  0  0  0
   42.1573  -20.6697   34.5434 C   0  0  0  0  0  0  0  0  0  0  0  0
   42.4930  -21.9794   34.3682 C   0  0  0  0  0  0  0  0  0  0  0  0
   43.8124  -22.3372   34.3525 F   0  0  0  0  0  0  0  0  0  0  0  0
   41.4892  -22.9133   34.2106 C   0  0  0  0  0  0  0  0  0  0  0  0
   40.1454  -22.5490   34.2265 C   0  0  0  0  0  0  0  0  0  0  0  0
   35.5105  -19.2422   34.3428 C   0  0  0  0  0  0  0  0  0  0  0  0
   34.4102  -18.5762   34.1826 C   0  0  0  0  0  0  0  0  0  0  0  0
   33.1010  -19.1841   34.4655 C   0  0  0  0  0  0  0  0  0  0  0  0
   31.9822  -18.5140   34.8209 C   0  0  0  0  0  0  0  0  0  0  0  0
   30.7563  -19.1412   35.0803 C   0  0  0  0  0  0  0  0  0  0  0  0
   30.6654  -20.5044   34.9737 C   0  0  0  0  0  0  0  0  0  0  0  0
   29.5148  -21.1779   35.2092 F   0  0  0  0  0  0  0  0  0  0  0  0
   31.8081  -21.2084   34.6090 C   0  0  0  0  0  0  0  0  0  0  0  0
   32.9940  -20.5814   34.3600 C   0  0  0  0  0  0  0  0  0  0  0  0
  1  2  2  0  0  0
  2  3  1  0  0  0
  3  4  2  0  0  0
  4  5  1  0  0  0
  5  6  2  0  0  0
  6  7  1  0  0  0
  7  8  2  0  0  0
  8  9  1  0  0  0
  8 10  1  0  0  0
 10 11  2  0  0  0
  2 12  1  0  0  0
 12 13  2  0  0  0
 13 14  1  0  0  0
 14 15  2  0  0  0
 15 16  1  0  0  0
 16 17  2  0  0  0
 17 18  1  0  0  0
 17 19  1  0  0  0
 19 20  2  0  0  0
 11  5  1  0  0  0
 20 14  1  0  0  0
M  END
> <minimizedAffinity>
-4.61135

> <CNNscore>
0.3830232918

> <CNNaffinity>
3.9791331291

> <CNN_VS>
1.5241006613

> <CNNaffinity_variance>
0.1845567524

$$$$
[H]/C(C(=O)/C([H])=C(\[H])c1c([H])c([H])c(F)c([H])c1[H])=C(/[H])c1c([H])c([H])c(F)c([H])c1[H]


 20 21  0  0  0  0  0  0  0  0999 V2000
   35.5234  -19.3329   38.9202 O   0  0  0  0  0  0  0  0  0  0  0  0
   35.4952  -19.5739   37.6173 C   0  0  0  0  0  0  0  0  0  0  0  0
   36.7587  -19.4209   37.0079 C   0  0  0  0  0  0  0  0  0  0  0  0
   37.1355  -19.0898   35.8113 C   0  0  0  0  0  0  0  0  0  0  0  0
   38.5492  -18.9925   35.3920 C   0  0  0  0  0  0  0  0  0  0  0  0
   38.8076  -18.8106   34.0267 C   0  0  0  0  0  0  0  0  0  0  0  0
   40.0802  -18.7074   33.5276 C   0  0  0  0  0  0  0  0  0  0  0  0
   41.1362  -18.7839   34.3865 C   0  0  0  0  0  0  0  0  0  0  0  0
   42.4082  -18.6819   33.8963 F   0  0  0  0  0  0  0  0  0  0  0  0
   40.8931  -18.9629   35.7333 C   0  0  0  0  0  0  0  0  0  0  0  0
   39.5975  -19.0669   36.2328 C   0  0  0  0  0  0  0  0  0  0  0  0
   34.2202  -19.9246   37.1449 C   0  0  0  0  0  0  0  0  0  0  0  0
   33.4837  -20.9572   37.4113 C   0  0  0  0  0  0  0  0  0  0  0  0
   32.1589  -21.1301   36.7961 C   0  0  0  0  0  0  0  0  0  0  0  0
   31.6399  -20.3589   35.8148 C   0  0  0  0  0  0  0  0  0  0  0  0
   30.3694  -20.5657   35.2610 C   0  0  0  0  0  0  0  0  0  0  0  0
   29.5965  -21.5982   35.7243 C   0  0  0  0  0  0  0  0  0  0  0  0
   28.3603  -21.8577   35.2369 F   0  0  0  0  0  0  0  0  0  0  0  0
   30.1165  -22.4009   36.7340 C   0  0  0  0  0  0  0  0  0  0  0  0
   31.3560  -22.1853   37.2620 C   0  0  0  0  0  0  0  0  0  0  0  0
  1  2  2  0  0  0
  2  3  1  0  0  0
  3  4  2  0  0  0
  4  5  1  0  0  0
  5  6  2  0  0  0
  6  7  1  0  0  0
  7  8  2  0  0  0
  8  9  1  0  0  0
  8 10  1  0  0  0
 10 11  2  0  0  0
  2 12  1  0  0  0
 12 13  2  0  0  0
 13 14  1  0  0  0
 14 15  2  0  0  0
 15 16  1  0  0  0
 16 17  2  0  0  0
 17 18  1  0  0  0
 17 19  1  0  0  0
 19 20  2  0  0  0
 11  5  1  0  0  0
 20 14  1  0  0  0
M  END
> <minimizedAffinity>
-4.64529

> <CNNscore>
0.3794488311

> <CNNaffinity>
3.6473231316

> <CNN_VS>
1.3839725256

> <CNNaffinity_variance>
0.3151081502

$$$$
[H]Oc1c([H])c([H])c(N([H])c2nc([H])c(F)c(N([H])c3c([H])c([H])c(C(=O)N([H])[H])c([H])c3[H])n2)c([H])c1[H]


 30 32  0  0  0  0  0  0  0  0999 V2000
   32.5193  -18.9250   34.4859 C   0  0  0  0  0  0  0  0  0  0  0  0
   32.6151  -17.7591   35.1031 N   0  0  0  0  0  0  0  0  0  0  0  0
   33.7988  -17.0871   35.2001 C   0  0  0  0  0  0  0  0  0  0  0  0
   34.8783  -17.6547   34.6416 N   0  0  0  0  0  0  0  0  0  0  0  0
   34.8557  -18.8209   34.0074 C   0  0  0  0  0  0  0  0  0  0  0  0
   33.6643  -19.5038   33.9062 C   0  0  0  0  0  0  0  0  0  0  0  0
   33.5791  -20.6885   33.2757 F   0  0  0  0  0  0  0  0  0  0  0  0
   31.3125  -19.6636   34.3841 N   0  0  0  0  0  0  0  0  0  0  0  0
   30.8034  -19.6255   33.4512 H   0  0  0  0  0  0  0  0  0  0  0  0
   29.3338  -21.9743   37.3012 C   0  0  0  0  0  0  0  0  0  0  0  0
   30.6590  -22.1293   37.0614 C   0  0  0  0  0  0  0  0  0  0  0  0
   31.3519  -21.3751   36.1078 C   0  0  0  0  0  0  0  0  0  0  0  0
   30.6988  -20.4467   35.3801 C   0  0  0  0  0  0  0  0  0  0  0  0
   29.3187  -20.2656   35.6110 C   0  0  0  0  0  0  0  0  0  0  0  0
   28.6641  -21.0140   36.5479 C   0  0  0  0  0  0  0  0  0  0  0  0
   29.2677  -23.2378   39.4362 N   0  0  0  0  0  0  0  0  0  0  0  0
   28.6068  -22.7574   38.2935 C   0  0  0  0  0  0  0  0  0  0  0  0
   27.3958  -22.9984   38.1226 O   0  0  0  0  0  0  0  0  0  0  0  0
   29.6414  -24.2057   39.4439 H   0  0  0  0  0  0  0  0  0  0  0  0
   29.3960  -22.6520   40.2804 H   0  0  0  0  0  0  0  0  0  0  0  0
   33.8161  -15.8672   35.8984 N   0  0  0  0  0  0  0  0  0  0  0  0
   32.8904  -15.3594   36.0179 H   0  0  0  0  0  0  0  0  0  0  0  0
   34.9558  -15.2742   36.4456 C   0  0  0  0  0  0  0  0  0  0  0  0
   35.9203  -15.9426   37.1400 C   0  0  0  0  0  0  0  0  0  0  0  0
   37.0430  -15.2952   37.7006 C   0  0  0  0  0  0  0  0  0  0  0  0
   37.1817  -13.9372   37.5464 C   0  0  0  0  0  0  0  0  0  0  0  0
   38.2862  -13.2897   38.0961 O   0  0  0  0  0  0  0  0  0  0  0  0
   36.2276  -13.2204   36.8485 C   0  0  0  0  0  0  0  0  0  0  0  0
   35.1520  -13.8798   36.3190 C   0  0  0  0  0  0  0  0  0  0  0  0
   38.1843  -12.9447   39.0432 H   0  0  0  0  0  0  0  0  0  0  0  0
 16 17  1  0  0  0
 17 18  2  0  0  0
 17 10  1  0  0  0
 10 11  2  0  0  0
 11 12  1  0  0  0
 12 13  2  0  0  0
 13  8  1  0  0  0
  8  1  1  0  0  0
  1  2  2  0  0  0
  2  3  1  0  0  0
  3 21  1  0  0  0
 21 23  1  0  0  0
 23 24  2  0  0  0
 24 25  1  0  0  0
 25 26  2  0  0  0
 26 27  1  0  0  0
 26 28  1  0  0  0
 28 29  2  0  0  0
  3  4  2  0  0  0
  4  5  1  0  0  0
  5  6  2  0  0  0
  6  7  1  0  0  0
 13 14  1  0  0  0
 14 15  2  0  0  0
 15 10  1  0  0  0
  6  1  1  0  0  0
 29 23  1  0  0  0
 16 19  1  0  0  0
 16 20  1  0  0  0
  8  9  1  0  0  0
 21 22  1  0  0  0
 27 30  1  0  0  0
M  END
> <minimizedAffinity>
-7.11589

> <CNNscore>
0.7737829685

> <CNNaffinity>
5.2796621323

> <CNN_VS>
4.0853128433

> <CNNaffinity_variance>
0.2522498369

$$$$
[H]Oc1c([H])c([H])c(N([H])c2nc([H])c(F)c(N([H])c3c([H])c([H])c(C(=O)N([H])[H])c([H])c3[H])n2)c([H])c1[H]


 30 32  0  0  0  0  0  0  0  0999 V2000
   33.8879  -17.6910   34.9003 C   0  0  0  0  0  0  0  0  0  0  0  0
   34.1878  -16.7637   35.7947 N   0  0  0  0  0  0  0  0  0  0  0  0
   35.4787  -16.4412   36.0971 C   0  0  0  0  0  0  0  0  0  0  0  0
   36.4486  -17.1039   35.4494 N   0  0  0  0  0  0  0  0  0  0  0  0
   36.2211  -18.0451   34.5409 C   0  0  0  0  0  0  0  0  0  0  0  0
   34.9207  -18.3750   34.2313 C   0  0  0  0  0  0  0  0  0  0  0  0
   34.6280  -19.3193   33.3196 F   0  0  0  0  0  0  0  0  0  0  0  0
   32.5600  -18.0695   34.5756 N   0  0  0  0  0  0  0  0  0  0  0  0
   32.0715  -17.5055   33.8176 H   0  0  0  0  0  0  0  0  0  0  0  0
   30.1745  -21.1584   36.1667 C   0  0  0  0  0  0  0  0  0  0  0  0
   31.5008  -21.0840   36.4370 C   0  0  0  0  0  0  0  0  0  0  0  0
   32.3229  -20.0693   35.9344 C   0  0  0  0  0  0  0  0  0  0  0  0
   31.8008  -19.1101   35.1434 C   0  0  0  0  0  0  0  0  0  0  0  0
   30.4223  -19.1648   34.8473 C   0  0  0  0  0  0  0  0  0  0  0  0
   29.6401  -20.1655   35.3502 C   0  0  0  0  0  0  0  0  0  0  0  0
   28.7454  -22.0942   37.9669 N   0  0  0  0  0  0  0  0  0  0  0  0
   29.3132  -22.2135   36.6875 C   0  0  0  0  0  0  0  0  0  0  0  0
   29.0832  -23.2219   35.9918 O   0  0  0  0  0  0  0  0  0  0  0  0
   29.2113  -22.5419   38.7788 H   0  0  0  0  0  0  0  0  0  0  0  0
   27.8680  -21.5688   38.1289 H   0  0  0  0  0  0  0  0  0  0  0  0
   35.7072  -15.4636   37.0810 N   0  0  0  0  0  0  0  0  0  0  0  0
   36.3203  -15.7342   37.9057 H   0  0  0  0  0  0  0  0  0  0  0  0
   35.1905  -14.1666   37.0560 C   0  0  0  0  0  0  0  0  0  0  0  0
   35.7036  -13.1416   36.3175 C   0  0  0  0  0  0  0  0  0  0  0  0
   35.1639  -11.8370   36.3458 C   0  0  0  0  0  0  0  0  0  0  0  0
   34.0773  -11.5768   37.1449 C   0  0  0  0  0  0  0  0  0  0  0  0
   33.5379  -10.2925   37.1794 O   0  0  0  0  0  0  0  0  0  0  0  0
   33.5246  -12.5872   37.9095 C   0  0  0  0  0  0  0  0  0  0  0  0
   34.0732  -13.8396   37.8583 C   0  0  0  0  0  0  0  0  0  0  0  0
   33.9168   -9.6604   37.8745 H   0  0  0  0  0  0  0  0  0  0  0  0
 16 17  1  0  0  0
 17 18  2  0  0  0
 17 10  1  0  0  0
 10 11  2  0  0  0
 11 12  1  0  0  0
 12 13  2  0  0  0
 13  8  1  0  0  0
  8  1  1  0  0  0
  1  2  2  0  0  0
  2  3  1  0  0  0
  3 21  1  0  0  0
 21 23  1  0  0  0
 23 24  2  0  0  0
 24 25  1  0  0  0
 25 26  2  0  0  0
 26 27  1  0  0  0
 26 28  1  0  0  0
 28 29  2  0  0  0
  3  4  2  0  0  0
  4  5  1  0  0  0
  5  6  2  0  0  0
  6  7  1  0  0  0
 13 14  1  0  0  0
 14 15  2  0  0  0
 15 10  1  0  0  0
  6  1  1  0  0  0
 29 23  1  0  0  0
 16 19  1  0  0  0
 16 20  1  0  0  0
  8  9  1  0  0  0
 21 22  1  0  0  0
 27 30  1  0  0  0
M  END
> <minimizedAffinity>
-7.59883

> <CNNscore>
0.6566680074

> <CNNaffinity>
5.4635925293

> <CNN_VS>
3.5877664089

> <CNNaffinity_variance>
0.4288860261

$$$$
[H]Oc1c([H])c([H])c(N([H])c2nc([H])c(F)c(N([H])c3c([H])c([H])c(C(=O)N([H])[H])c([H])c3[H])n2)c([H])c1[H]


 30 32  0  0  0  0  0  0  0  0999 V2000
   33.1443  -18.0049   35.3183 C   0  0  0  0  0  0  0  0  0  0  0  0
   32.4829  -18.8324   36.1104 N   0  0  0  0  0  0  0  0  0  0  0  0
   32.4485  -20.1776   35.8843 C   0  0  0  0  0  0  0  0  0  0  0  0
   33.1164  -20.6415   34.8174 N   0  0  0  0  0  0  0  0  0  0  0  0
   33.8004  -19.8702   33.9808 C   0  0  0  0  0  0  0  0  0  0  0  0
   33.8390  -18.5120   34.2036 C   0  0  0  0  0  0  0  0  0  0  0  0
   34.5154  -17.6806   33.3914 F   0  0  0  0  0  0  0  0  0  0  0  0
   33.1847  -16.5997   35.5075 N   0  0  0  0  0  0  0  0  0  0  0  0
   32.3148  -16.0529   35.2328 H   0  0  0  0  0  0  0  0  0  0  0  0
   36.4698  -14.4250   37.0051 C   0  0  0  0  0  0  0  0  0  0  0  0
   35.3297  -13.8006   36.6205 C   0  0  0  0  0  0  0  0  0  0  0  0
   34.2158  -14.4890   36.1268 C   0  0  0  0  0  0  0  0  0  0  0  0
   34.2494  -15.8325   36.0170 C   0  0  0  0  0  0  0  0  0  0  0  0
   35.4248  -16.5063   36.4112 C   0  0  0  0  0  0  0  0  0  0  0  0
   36.4993  -15.8122   36.8905 C   0  0  0  0  0  0  0  0  0  0  0  0
   38.2564  -12.7228   36.7423 N   0  0  0  0  0  0  0  0  0  0  0  0
   37.6334  -13.7129   37.5200 C   0  0  0  0  0  0  0  0  0  0  0  0
   38.0726  -13.9871   38.6539 O   0  0  0  0  0  0  0  0  0  0  0  0
   39.0849  -12.9675   36.1676 H   0  0  0  0  0  0  0  0  0  0  0  0
   37.9129  -11.7461   36.7228 H   0  0  0  0  0  0  0  0  0  0  0  0
   31.6976  -20.9806   36.7603 N   0  0  0  0  0  0  0  0  0  0  0  0
   31.9774  -20.9793   37.7855 H   0  0  0  0  0  0  0  0  0  0  0  0
   30.6142  -21.7778   36.3855 C   0  0  0  0  0  0  0  0  0  0  0  0
   29.3142  -21.3663   36.3790 C   0  0  0  0  0  0  0  0  0  0  0  0
   28.2469  -22.2179   36.0188 C   0  0  0  0  0  0  0  0  0  0  0  0
   28.5156  -23.5156   35.6574 C   0  0  0  0  0  0  0  0  0  0  0  0
   27.4689  -24.3633   35.3006 O   0  0  0  0  0  0  0  0  0  0  0  0
   29.8197  -23.9743   35.6491 C   0  0  0  0  0  0  0  0  0  0  0  0
   30.8295  -23.1221   36.0043 C   0  0  0  0  0  0  0  0  0  0  0  0
   27.0431  -24.8974   36.0488 H   0  0  0  0  0  0  0  0  0  0  0  0
 16 17  1  0  0  0
 17 18  2  0  0  0
 17 10  1  0  0  0
 10 11  2  0  0  0
 11 12  1  0  0  0
 12 13  2  0  0  0
 13  8  1  0  0  0
  8  1  1  0  0  0
  1  2  2  0  0  0
  2  3  1  0  0  0
  3 21  1  0  0  0
 21 23  1  0  0  0
 23 24  2  0  0  0
 24 25  1  0  0  0
 25 26  2  0  0  0
 26 27  1  0  0  0
 26 28  1  0  0  0
 28 29  2  0  0  0
  3  4  2  0  0  0
  4  5  1  0  0  0
  5  6  2  0  0  0
  6  7  1  0  0  0
 13 14  1  0  0  0
 14 15  2  0  0  0
 15 10  1  0  0  0
  6  1  1  0  0  0
 29 23  1  0  0  0
 16 19  1  0  0  0
 16 20  1  0  0  0
  8  9  1  0  0  0
 21 22  1  0  0  0
 27 30  1  0  0  0
M  END
> <minimizedAffinity>
-6.68601

> <CNNscore>
0.5974891782

> <CNNaffinity>
4.9736199379

> <CNN_VS>
2.9716839790

> <CNNaffinity_variance>
0.8657296896

$$$$
[H]Oc1c([H])c([H])c(N([H])c2nc([H])c(F)c(N([H])c3c([H])c([H])c(C(=O)N([H])[H])c([H])c3[H])n2)c([H])c1[H]


 30 32  0  0  0  0  0  0  0  0999 V2000
   33.0200  -18.7882   35.0405 C   0  0  0  0  0  0  0  0  0  0  0  0
   33.6168  -17.8885   35.8047 N   0  0  0  0  0  0  0  0  0  0  0  0
   34.9540  -17.6332   35.7116 C   0  0  0  0  0  0  0  0  0  0  0  0
   35.6548  -18.3336   34.8073 N   0  0  0  0  0  0  0  0  0  0  0  0
   35.1222  -19.2506   34.0084 C   0  0  0  0  0  0  0  0  0  0  0  0
   33.7734  -19.5128   34.0974 C   0  0  0  0  0  0  0  0  0  0  0  0
   33.1776  -20.4296   33.3146 F   0  0  0  0  0  0  0  0  0  0  0  0
   31.6381  -19.0974   35.1234 N   0  0  0  0  0  0  0  0  0  0  0  0
   30.9590  -18.3623   34.7634 H   0  0  0  0  0  0  0  0  0  0  0  0
   29.9850  -22.6091   36.7662 C   0  0  0  0  0  0  0  0  0  0  0  0
   29.2833  -21.8418   35.8963 C   0  0  0  0  0  0  0  0  0  0  0  0
   29.8013  -20.6747   35.3240 C   0  0  0  0  0  0  0  0  0  0  0  0
   31.0501  -20.2705   35.6330 C   0  0  0  0  0  0  0  0  0  0  0  0
   31.8015  -21.0522   36.5359 C   0  0  0  0  0  0  0  0  0  0  0  0
   31.2740  -22.1881   37.0816 C   0  0  0  0  0  0  0  0  0  0  0  0
   28.5098  -24.6024   36.6684 N   0  0  0  0  0  0  0  0  0  0  0  0
   29.4503  -23.8261   37.3657 C   0  0  0  0  0  0  0  0  0  0  0  0
   29.8319  -24.1741   38.5002 O   0  0  0  0  0  0  0  0  0  0  0  0
   27.4975  -24.4717   36.8545 H   0  0  0  0  0  0  0  0  0  0  0  0
   28.7959  -25.3084   35.9670 H   0  0  0  0  0  0  0  0  0  0  0  0
   35.5118  -16.6808   36.5823 N   0  0  0  0  0  0  0  0  0  0  0  0
   36.2295  -17.0239   37.2868 H   0  0  0  0  0  0  0  0  0  0  0  0
   35.1943  -15.3210   36.5907 C   0  0  0  0  0  0  0  0  0  0  0  0
   33.9454  -14.8150   36.3822 C   0  0  0  0  0  0  0  0  0  0  0  0
   33.6767  -13.4287   36.3716 C   0  0  0  0  0  0  0  0  0  0  0  0
   34.7061  -12.5433   36.5795 C   0  0  0  0  0  0  0  0  0  0  0  0
   34.4505  -11.1736   36.5707 O   0  0  0  0  0  0  0  0  0  0  0  0
   35.9881  -13.0132   36.7960 C   0  0  0  0  0  0  0  0  0  0  0  0
   36.2129  -14.3629   36.7992 C   0  0  0  0  0  0  0  0  0  0  0  0
   34.5268  -10.7041   35.6763 H   0  0  0  0  0  0  0  0  0  0  0  0
 16 17  1  0  0  0
 17 18  2  0  0  0
 17 10  1  0  0  0
 10 11  2  0  0  0
 11 12  1  0  0  0
 12 13  2  0  0  0
 13  8  1  0  0  0
  8  1  1  0  0  0
  1  2  2  0  0  0
  2  3  1  0  0  0
  3 21  1  0  0  0
 21 23  1  0  0  0
 23 24  2  0  0  0
 24 25  1  0  0  0
 25 26  2  0  0  0
 26 27  1  0  0  0
 26 28  1  0  0  0
 28 29  2  0  0  0
  3  4  2  0  0  0
  4  5  1  0  0  0
  5  6  2  0  0  0
  6  7  1  0  0  0
 13 14  1  0  0  0
 14 15  2  0  0  0
 15 10  1  0  0  0
  6  1  1  0  0  0
 29 23  1  0  0  0
 16 19  1  0  0  0
 16 20  1  0  0  0
  8  9  1  0  0  0
 21 22  1  0  0  0
 27 30  1  0  0  0
M  END
> <minimizedAffinity>
-6.74486

> <CNNscore>
0.5934167504

> <CNNaffinity>
5.2031736374

> <CNN_VS>
3.0876502991

> <CNNaffinity_variance>
0.5290890932

$$$$
[H]Oc1c([H])c([H])c(N([H])c2nc([H])c(F)c(N([H])c3c([H])c([H])c(C(=O)N([H])[H])c([H])c3[H])n2)c([H])c1[H]


 30 32  0  0  0  0  0  0  0  0999 V2000
   34.8818  -18.8030   34.2317 C   0  0  0  0  0  0  0  0  0  0  0  0
   34.8573  -17.6200   34.8229 N   0  0  0  0  0  0  0  0  0  0  0  0
   33.6930  -17.0450   35.2423 C   0  0  0  0  0  0  0  0  0  0  0  0
   32.5571  -17.7272   35.0329 N   0  0  0  0  0  0  0  0  0  0  0  0
   32.5070  -18.9174   34.4466 C   0  0  0  0  0  0  0  0  0  0  0  0
   33.6785  -19.5029   34.0213 C   0  0  0  0  0  0  0  0  0  0  0  0
   33.6909  -20.7066   33.4218 F   0  0  0  0  0  0  0  0  0  0  0  0
   36.0683  -19.4225   33.7622 N   0  0  0  0  0  0  0  0  0  0  0  0
   35.9707  -20.0793   32.9314 H   0  0  0  0  0  0  0  0  0  0  0  0
   39.9278  -19.0542   35.4151 C   0  0  0  0  0  0  0  0  0  0  0  0
   39.7171  -18.9155   34.0831 C   0  0  0  0  0  0  0  0  0  0  0  0
   38.4500  -19.0224   33.4991 C   0  0  0  0  0  0  0  0  0  0  0  0
   37.3728  -19.2744   34.2701 C   0  0  0  0  0  0  0  0  0  0  0  0
   37.5654  -19.4225   35.6600 C   0  0  0  0  0  0  0  0  0  0  0  0
   38.8125  -19.3136   36.2069 C   0  0  0  0  0  0  0  0  0  0  0  0
   41.8709  -17.6907   36.1391 N   0  0  0  0  0  0  0  0  0  0  0  0
   41.2459  -18.9440   36.0290 C   0  0  0  0  0  0  0  0  0  0  0  0
   41.8153  -19.9674   36.4555 O   0  0  0  0  0  0  0  0  0  0  0  0
   42.5563  -17.3941   35.4188 H   0  0  0  0  0  0  0  0  0  0  0  0
   41.6684  -17.0458   36.9235 H   0  0  0  0  0  0  0  0  0  0  0  0
   33.7555  -15.7722   35.8358 N   0  0  0  0  0  0  0  0  0  0  0  0
   32.8638  -15.1944   35.8481 H   0  0  0  0  0  0  0  0  0  0  0  0
   34.8987  -15.2116   36.4091 C   0  0  0  0  0  0  0  0  0  0  0  0
   35.8403  -15.9111   37.1044 C   0  0  0  0  0  0  0  0  0  0  0  0
   36.9674  -15.2959   37.6918 C   0  0  0  0  0  0  0  0  0  0  0  0
   37.1345  -13.9384   37.5642 C   0  0  0  0  0  0  0  0  0  0  0  0
   38.2436  -13.3226   38.1406 O   0  0  0  0  0  0  0  0  0  0  0  0
   36.2044  -13.1906   36.8665 C   0  0  0  0  0  0  0  0  0  0  0  0
   35.1237  -13.8192   36.3105 C   0  0  0  0  0  0  0  0  0  0  0  0
   38.1352  -12.9926   39.0922 H   0  0  0  0  0  0  0  0  0  0  0  0
 16 17  1  0  0  0
 17 18  2  0  0  0
 17 10  1  0  0  0
 10 11  2  0  0  0
 11 12  1  0  0  0
 12 13  2  0  0  0
 13  8  1  0  0  0
  8  1  1  0  0  0
  1  2  2  0  0  0
  2  3  1  0  0  0
  3 21  1  0  0  0
 21 23  1  0  0  0
 23 24  2  0  0  0
 24 25  1  0  0  0
 25 26  2  0  0  0
 26 27  1  0  0  0
 26 28  1  0  0  0
 28 29  2  0  0  0
  3  4  2  0  0  0
  4  5  1  0  0  0
  5  6  2  0  0  0
  6  7  1  0  0  0
 13 14  1  0  0  0
 14 15  2  0  0  0
 15 10  1  0  0  0
  6  1  1  0  0  0
 29 23  1  0  0  0
 16 19  1  0  0  0
 16 20  1  0  0  0
  8  9  1  0  0  0
 21 22  1  0  0  0
 27 30  1  0  0  0
M  END
> <minimizedAffinity>
-7.73130

> <CNNscore>
0.5446466208

> <CNNaffinity>
5.4879741669

> <CNN_VS>
2.9890065193

> <CNNaffinity_variance>
0.3190796673

$$$$
[H]Oc1c([H])c([H])c(N([H])c2nc([H])c(F)c(N([H])c3c([H])c([H])c(C(=O)N([H])[H])c([H])c3[H])n2)c([H])c1[H]


 30 32  0  0  0  0  0  0  0  0999 V2000
   34.3679  -14.0967   37.0125 C   0  0  0  0  0  0  0  0  0  0  0  0
   33.6073  -14.9344   36.3273 N   0  0  0  0  0  0  0  0  0  0  0  0
   34.1185  -16.0455   35.7223 C   0  0  0  0  0  0  0  0  0  0  0  0
   35.4361  -16.2649   35.8458 N   0  0  0  0  0  0  0  0  0  0  0  0
   36.2583  -15.4677   36.5175 C   0  0  0  0  0  0  0  0  0  0  0  0
   35.7487  -14.3449   37.1304 C   0  0  0  0  0  0  0  0  0  0  0  0
   36.5318  -13.5007   37.8249 F   0  0  0  0  0  0  0  0  0  0  0  0
   33.8778  -12.9205   37.6358 N   0  0  0  0  0  0  0  0  0  0  0  0
   34.5905  -12.1644   37.8626 H   0  0  0  0  0  0  0  0  0  0  0  0
   29.8698  -12.0096   38.5686 C   0  0  0  0  0  0  0  0  0  0  0  0
   30.6158  -12.8050   39.3739 C   0  0  0  0  0  0  0  0  0  0  0  0
   31.9512  -13.1227   39.1020 C   0  0  0  0  0  0  0  0  0  0  0  0
   32.5485  -12.6309   37.9976 C   0  0  0  0  0  0  0  0  0  0  0  0
   31.7934  -11.7999   37.1431 C   0  0  0  0  0  0  0  0  0  0  0  0
   30.4910  -11.5038   37.4300 C   0  0  0  0  0  0  0  0  0  0  0  0
   27.5469  -11.5988   37.7979 N   0  0  0  0  0  0  0  0  0  0  0  0
   28.4779  -11.6753   38.8470 C   0  0  0  0  0  0  0  0  0  0  0  0
   28.1185  -11.4579   40.0205 O   0  0  0  0  0  0  0  0  0  0  0  0
   27.3279  -10.6783   37.3722 H   0  0  0  0  0  0  0  0  0  0  0  0
   27.0663  -12.4394   37.4309 H   0  0  0  0  0  0  0  0  0  0  0  0
   33.2433  -16.8665   34.9901 N   0  0  0  0  0  0  0  0  0  0  0  0
   32.5936  -16.3917   34.2960 H   0  0  0  0  0  0  0  0  0  0  0  0
   33.1637  -18.2558   35.1061 C   0  0  0  0  0  0  0  0  0  0  0  0
   33.6380  -18.9741   36.1637 C   0  0  0  0  0  0  0  0  0  0  0  0
   33.5606  -20.3827   36.2244 C   0  0  0  0  0  0  0  0  0  0  0  0
   32.9858  -21.0694   35.1828 C   0  0  0  0  0  0  0  0  0  0  0  0
   32.9052  -22.4595   35.2338 O   0  0  0  0  0  0  0  0  0  0  0  0
   32.4909  -20.3807   34.0910 C   0  0  0  0  0  0  0  0  0  0  0  0
   32.5829  -19.0158   34.0649 C   0  0  0  0  0  0  0  0  0  0  0  0
   33.6869  -22.9734   34.8451 H   0  0  0  0  0  0  0  0  0  0  0  0
 16 17  1  0  0  0
 17 18  2  0  0  0
 17 10  1  0  0  0
 10 11  2  0  0  0
 11 12  1  0  0  0
 12 13  2  0  0  0
 13  8  1  0  0  0
  8  1  1  0  0  0
  1  2  2  0  0  0
  2  3  1  0  0  0
  3 21  1  0  0  0
 21 23  1  0  0  0
 23 24  2  0  0  0
 24 25  1  0  0  0
 25 26  2  0  0  0
 26 27  1  0  0  0
 26 28  1  0  0  0
 28 29  2  0  0  0
  3  4  2  0  0  0
  4  5  1  0  0  0
  5  6  2  0  0  0
  6  7  1  0  0  0
 13 14  1  0  0  0
 14 15  2  0  0  0
 15 10  1  0  0  0
  6  1  1  0  0  0
 29 23  1  0  0  0
 16 19  1  0  0  0
 16 20  1  0  0  0
  8  9  1  0  0  0
 21 22  1  0  0  0
 27 30  1  0  0  0
M  END
> <minimizedAffinity>
-7.98533

> <CNNscore>
0.4431087375

> <CNNaffinity>
5.5707345009

> <CNN_VS>
2.4684412479

> <CNNaffinity_variance>
0.2448752820

$$$$
[H]Oc1c([H])c([H])c(N([H])c2nc([H])c(F)c(N([H])c3c([H])c([H])c(C(=O)N([H])[H])c([H])c3[H])n2)c([H])c1[H]


 30 32  0  0  0  0  0  0  0  0999 V2000
   35.9820  -14.8169   36.2306 C   0  0  0  0  0  0  0  0  0  0  0  0
   35.5140  -15.7259   35.3913 N   0  0  0  0  0  0  0  0  0  0  0  0
   35.8425  -17.0460   35.4981 C   0  0  0  0  0  0  0  0  0  0  0  0
   36.6671  -17.3982   36.4958 N   0  0  0  0  0  0  0  0  0  0  0  0
   37.1739  -16.5407   37.3736 C   0  0  0  0  0  0  0  0  0  0  0  0
   36.8463  -15.2072   37.2712 C   0  0  0  0  0  0  0  0  0  0  0  0
   37.3279  -14.2921   38.1308 F   0  0  0  0  0  0  0  0  0  0  0  0
   35.6817  -13.4336   36.1385 N   0  0  0  0  0  0  0  0  0  0  0  0
   36.4146  -12.8125   35.6821 H   0  0  0  0  0  0  0  0  0  0  0  0
   32.1262  -11.6018   37.4674 C   0  0  0  0  0  0  0  0  0  0  0  0
   33.3341  -11.0199   37.6673 C   0  0  0  0  0  0  0  0  0  0  0  0
   34.5347  -11.5931   37.2333 C   0  0  0  0  0  0  0  0  0  0  0  0
   34.5203  -12.7757   36.5856 C   0  0  0  0  0  0  0  0  0  0  0  0
   33.2753  -13.4018   36.3647 C   0  0  0  0  0  0  0  0  0  0  0  0
   32.1165  -12.8223   36.7977 C   0  0  0  0  0  0  0  0  0  0  0  0
   30.1255  -11.6252   38.9357 N   0  0  0  0  0  0  0  0  0  0  0  0
   30.8721  -11.0092   37.9176 C   0  0  0  0  0  0  0  0  0  0  0  0
   30.4659   -9.9533   37.3944 O   0  0  0  0  0  0  0  0  0  0  0  0
   29.3427  -12.2589   38.6863 H   0  0  0  0  0  0  0  0  0  0  0  0
   30.3324  -11.4665   39.9378 H   0  0  0  0  0  0  0  0  0  0  0  0
   35.3227  -17.9401   34.5461 N   0  0  0  0  0  0  0  0  0  0  0  0
   35.9137  -18.1348   33.6847 H   0  0  0  0  0  0  0  0  0  0  0  0
   34.0910  -18.5902   34.6471 C   0  0  0  0  0  0  0  0  0  0  0  0
   33.0534  -18.1691   35.4252 C   0  0  0  0  0  0  0  0  0  0  0  0
   31.8344  -18.8758   35.5179 C   0  0  0  0  0  0  0  0  0  0  0  0
   31.6739  -20.0355   34.7993 C   0  0  0  0  0  0  0  0  0  0  0  0
   30.4746  -20.7396   34.8846 O   0  0  0  0  0  0  0  0  0  0  0  0
   32.7000  -20.4982   33.9967 C   0  0  0  0  0  0  0  0  0  0  0  0
   33.8680  -19.7886   33.9308 C   0  0  0  0  0  0  0  0  0  0  0  0
   30.4141  -21.4457   35.6085 H   0  0  0  0  0  0  0  0  0  0  0  0
 16 17  1  0  0  0
 17 18  2  0  0  0
 17 10  1  0  0  0
 10 11  2  0  0  0
 11 12  1  0  0  0
 12 13  2  0  0  0
 13  8  1  0  0  0
  8  1  1  0  0  0
  1  2  2  0  0  0
  2  3  1  0  0  0
  3 21  1  0  0  0
 21 23  1  0  0  0
 23 24  2  0  0  0
 24 25  1  0  0  0
 25 26  2  0  0  0
 26 27  1  0  0  0
 26 28  1  0  0  0
 28 29  2  0  0  0
  3  4  2  0  0  0
  4  5  1  0  0  0
  5  6  2  0  0  0
  6  7  1  0  0  0
 13 14  1  0  0  0
 14 15  2  0  0  0
 15 10  1  0  0  0
  6  1  1  0  0  0
 29 23  1  0  0  0
 16 19  1  0  0  0
 16 20  1  0  0  0
  8  9  1  0  0  0
 21 22  1  0  0  0
 27 30  1  0  0  0
M  END
> <minimizedAffinity>
-7.26673

> <CNNscore>
0.3009058833

> <CNNaffinity>
5.6512899399

> <CNN_VS>
1.7005064487

> <CNNaffinity_variance>
0.1101776138

$$$$
[H]Oc1c([H])c([H])c(N([H])c2nc([H])c(F)c(N([H])c3c([H])c([H])c(C(=O)N([H])[H])c([H])c3[H])n2)c([H])c1[H]


 30 32  0  0  0  0  0  0  0  0999 V2000
   34.0195  -20.1429   36.2760 C   0  0  0  0  0  0  0  0  0  0  0  0
   34.1246  -18.8751   35.9135 N   0  0  0  0  0  0  0  0  0  0  0  0
   33.0415  -18.1419   35.5246 C   0  0  0  0  0  0  0  0  0  0  0  0
   31.8490  -18.7562   35.5214 N   0  0  0  0  0  0  0  0  0  0  0  0
   31.6697  -20.0240   35.8723 C   0  0  0  0  0  0  0  0  0  0  0  0
   32.7586  -20.7693   36.2658 C   0  0  0  0  0  0  0  0  0  0  0  0
   32.6393  -22.0574   36.6327 F   0  0  0  0  0  0  0  0  0  0  0  0
   35.1241  -20.9435   36.6644 N   0  0  0  0  0  0  0  0  0  0  0  0
   35.5762  -21.5379   35.9072 H   0  0  0  0  0  0  0  0  0  0  0  0
   36.6980  -21.2743   40.5602 C   0  0  0  0  0  0  0  0  0  0  0  0
   37.4671  -21.5091   39.4688 C   0  0  0  0  0  0  0  0  0  0  0  0
   36.9827  -21.4010   38.1605 C   0  0  0  0  0  0  0  0  0  0  0  0
   35.6987  -21.0503   37.9451 C   0  0  0  0  0  0  0  0  0  0  0  0
   34.8773  -20.8000   39.0648 C   0  0  0  0  0  0  0  0  0  0  0  0
   35.3732  -20.9119   40.3327 C   0  0  0  0  0  0  0  0  0  0  0  0
   38.5797  -21.4413   42.1696 N   0  0  0  0  0  0  0  0  0  0  0  0
   37.1974  -21.3856   41.9257 C   0  0  0  0  0  0  0  0  0  0  0  0
   36.3915  -21.4310   42.8756 O   0  0  0  0  0  0  0  0  0  0  0  0
   39.0434  -22.3620   42.2867 H   0  0  0  0  0  0  0  0  0  0  0  0
   39.1580  -20.5850   42.2371 H   0  0  0  0  0  0  0  0  0  0  0  0
   33.2479  -16.8091   35.1280 N   0  0  0  0  0  0  0  0  0  0  0  0
   32.6960  -16.4573   34.2909 H   0  0  0  0  0  0  0  0  0  0  0  0
   34.1216  -15.9150   35.7501 C   0  0  0  0  0  0  0  0  0  0  0  0
   33.7549  -14.7116   36.2761 C   0  0  0  0  0  0  0  0  0  0  0  0
   34.6799  -13.8262   36.8714 C   0  0  0  0  0  0  0  0  0  0  0  0
   36.0060  -14.1798   36.9302 C   0  0  0  0  0  0  0  0  0  0  0  0
   36.9261  -13.3125   37.5156 O   0  0  0  0  0  0  0  0  0  0  0  0
   36.4214  -15.3914   36.4099 C   0  0  0  0  0  0  0  0  0  0  0  0
   35.4982  -16.2249   35.8397 C   0  0  0  0  0  0  0  0  0  0  0  0
   37.3659  -12.6370   36.9020 H   0  0  0  0  0  0  0  0  0  0  0  0
 16 17  1  0  0  0
 17 18  2  0  0  0
 17 10  1  0  0  0
 10 11  2  0  0  0
 11 12  1  0  0  0
 12 13  2  0  0  0
 13  8  1  0  0  0
  8  1  1  0  0  0
  1  2  2  0  0  0
  2  3  1  0  0  0
  3 21  1  0  0  0
 21 23  1  0  0  0
 23 24  2  0  0  0
 24 25  1  0  0  0
 25 26  2  0  0  0
 26 27  1  0  0  0
 26 28  1  0  0  0
 28 29  2  0  0  0
  3  4  2  0  0  0
  4  5  1  0  0  0
  5  6  2  0  0  0
  6  7  1  0  0  0
 13 14  1  0  0  0
 14 15  2  0  0  0
 15 10  1  0  0  0
  6  1  1  0  0  0
 29 23  1  0  0  0
 16 19  1  0  0  0
 16 20  1  0  0  0
  8  9  1  0  0  0
 21 22  1  0  0  0
 27 30  1  0  0  0
M  END
> <minimizedAffinity>
-6.01123

> <CNNscore>
0.2964094877

> <CNNaffinity>
4.7361874580

> <CNN_VS>
1.4038509130

> <CNNaffinity_variance>
0.3333894312

$$$$
[H]Oc1c([H])c([H])c(N([H])c2nc([H])c(F)c(N([H])c3c([H])c([H])c(C(=O)N([H])[H])c([H])c3[H])n2)c([H])c1[H]


 30 32  0  0  0  0  0  0  0  0999 V2000
   35.3228  -15.0777   36.9085 C   0  0  0  0  0  0  0  0  0  0  0  0
   34.1245  -14.5697   36.6724 N   0  0  0  0  0  0  0  0  0  0  0  0
   33.9134  -13.2243   36.5873 C   0  0  0  0  0  0  0  0  0  0  0  0
   34.9748  -12.4210   36.7532 N   0  0  0  0  0  0  0  0  0  0  0  0
   36.2044  -12.8609   36.9926 C   0  0  0  0  0  0  0  0  0  0  0  0
   36.4241  -14.2175   37.0796 C   0  0  0  0  0  0  0  0  0  0  0  0
   37.6471  -14.7224   37.3196 F   0  0  0  0  0  0  0  0  0  0  0  0
   35.5776  -16.4681   37.0263 N   0  0  0  0  0  0  0  0  0  0  0  0
   35.1774  -16.9591   37.8807 H   0  0  0  0  0  0  0  0  0  0  0  0
   37.8178  -18.9937   34.5030 C   0  0  0  0  0  0  0  0  0  0  0  0
   36.7770  -18.2675   34.0266 C   0  0  0  0  0  0  0  0  0  0  0  0
   36.0158  -17.4122   34.8312 C   0  0  0  0  0  0  0  0  0  0  0  0
   36.3068  -17.2851   36.1417 C   0  0  0  0  0  0  0  0  0  0  0  0
   37.3861  -18.0302   36.6622 C   0  0  0  0  0  0  0  0  0  0  0  0
   38.1147  -18.8585   35.8565 C   0  0  0  0  0  0  0  0  0  0  0  0
   39.0763  -19.4557   32.4146 N   0  0  0  0  0  0  0  0  0  0  0  0
   38.6143  -19.8864   33.6693 C   0  0  0  0  0  0  0  0  0  0  0  0
   38.8830  -21.0338   34.0756 O   0  0  0  0  0  0  0  0  0  0  0  0
   38.5371  -19.6922   31.5603 H   0  0  0  0  0  0  0  0  0  0  0  0
   39.9466  -18.9039   32.3124 H   0  0  0  0  0  0  0  0  0  0  0  0
   32.6025  -12.7695   36.3618 N   0  0  0  0  0  0  0  0  0  0  0  0
   32.2738  -12.7063   35.3533 H   0  0  0  0  0  0  0  0  0  0  0  0
   31.7019  -12.3955   37.3613 C   0  0  0  0  0  0  0  0  0  0  0  0
   31.6067  -12.9940   38.5828 C   0  0  0  0  0  0  0  0  0  0  0  0
   30.6595  -12.5997   39.5531 C   0  0  0  0  0  0  0  0  0  0  0  0
   29.7937  -11.5721   39.2678 C   0  0  0  0  0  0  0  0  0  0  0  0
   28.8556  -11.1762   40.2190 O   0  0  0  0  0  0  0  0  0  0  0  0
   29.8561  -10.9366   38.0417 C   0  0  0  0  0  0  0  0  0  0  0  0
   30.7859  -11.3448   37.1247 C   0  0  0  0  0  0  0  0  0  0  0  0
   27.9565  -11.6419   40.1900 H   0  0  0  0  0  0  0  0  0  0  0  0
 16 17  1  0  0  0
 17 18  2  0  0  0
 17 10  1  0  0  0
 10 11  2  0  0  0
 11 12  1  0  0  0
 12 13  2  0  0  0
 13  8  1  0  0  0
  8  1  1  0  0  0
  1  2  2  0  0  0
  2  3  1  0  0  0
  3 21  1  0  0  0
 21 23  1  0  0  0
 23 24  2  0  0  0
 24 25  1  0  0  0
 25 26  2  0  0  0
 26 27  1  0  0  0
 26 28  1  0  0  0
 28 29  2  0  0  0
  3  4  2  0  0  0
  4  5  1  0  0  0
  5  6  2  0  0  0
  6  7  1  0  0  0
 13 14  1  0  0  0
 14 15  2  0  0  0
 15 10  1  0  0  0
  6  1  1  0  0  0
 29 23  1  0  0  0
 16 19  1  0  0  0
 16 20  1  0  0  0
  8  9  1  0  0  0
 21 22  1  0  0  0
 27 30  1  0  0  0
M  END
> <minimizedAffinity>
-8.02885

> <CNNscore>
0.2562035322

> <CNNaffinity>
5.4543600082

> <CNN_VS>
1.3974262476

> <CNNaffinity_variance>
0.2387791574

$$$$
[H]OC(=O)[C@@]1([H])N(C(=O)[C@@]([H])(N([H])[C@]([H])(C(=O)O[H])C([H])([H])C([H])([H])c2c([H])c([H])c([H])c([H])c2[H])C([H])([H])[H])C([H])([H])c2c([H])c([H])c([H])c([H])c2C1([H])[H]


 33 35  0  0  0  0  0  0  0  0999 V2000
   33.0197  -11.6319   38.5621 C   0  0  0  0  0  0  0  0  0  0  0  0
   32.1509  -12.8309   38.9739 C   0  0  0  0  0  0  0  0  0  0  0  0
   30.7634  -12.4585   38.6838 C   0  0  0  0  0  0  0  0  0  0  0  0
   30.4992  -12.1754   37.4635 O   0  0  0  0  0  0  0  0  0  0  0  0
   29.6944  -12.3794   39.6014 N   0  0  0  0  0  0  0  0  0  0  0  0
   28.3801  -11.9343   39.0825 C   0  0  0  0  0  0  0  0  0  0  0  0
   28.0239  -10.6851   39.8523 C   0  0  0  0  0  0  0  0  0  0  0  0
   27.5983   -9.5246   39.2639 C   0  0  0  0  0  0  0  0  0  0  0  0
   27.3234   -8.4047   40.0655 C   0  0  0  0  0  0  0  0  0  0  0  0
   27.4947   -8.5184   41.4286 C   0  0  0  0  0  0  0  0  0  0  0  0
   27.9313   -9.7206   42.0004 C   0  0  0  0  0  0  0  0  0  0  0  0
   28.2025  -10.8236   41.2230 C   0  0  0  0  0  0  0  0  0  0  0  0
   28.6237  -12.1157   41.7612 C   0  0  0  0  0  0  0  0  0  0  0  0
   29.7685  -12.7014   40.9984 C   0  0  0  0  0  0  0  0  0  0  0  0
   29.8559  -14.1753   41.2133 C   0  0  0  0  0  0  0  0  0  0  0  0
   29.5879  -14.9461   40.2779 O   0  0  0  0  0  0  0  0  0  0  0  0
   30.2301  -14.6519   42.4363 O   0  0  0  0  0  0  0  0  0  0  0  0
   31.1761  -14.4439   42.7518 H   0  0  0  0  0  0  0  0  0  0  0  0
   32.6168  -13.9237   38.1272 N   0  0  0  0  0  0  0  0  0  0  0  0
   32.7731  -14.7415   38.7700 H   0  0  0  0  0  0  0  0  0  0  0  0
   33.9054  -13.5691   37.5789 C   0  0  0  0  0  0  0  0  0  0  0  0
   33.7701  -12.9709   36.2184 C   0  0  0  0  0  0  0  0  0  0  0  0
   34.7011  -12.3225   35.6789 O   0  0  0  0  0  0  0  0  0  0  0  0
   32.6024  -13.1035   35.4797 O   0  0  0  0  0  0  0  0  0  0  0  0
   31.6754  -13.0056   35.8674 H   0  0  0  0  0  0  0  0  0  0  0  0
   34.8591  -14.7366   37.5736 C   0  0  0  0  0  0  0  0  0  0  0  0
   34.6785  -15.6098   36.3544 C   0  0  0  0  0  0  0  0  0  0  0  0
   35.7014  -16.6830   36.2886 C   0  0  0  0  0  0  0  0  0  0  0  0
   36.4007  -16.9588   35.1203 C   0  0  0  0  0  0  0  0  0  0  0  0
   37.3534  -17.9490   35.0253 C   0  0  0  0  0  0  0  0  0  0  0  0
   37.6450  -18.7191   36.1342 C   0  0  0  0  0  0  0  0  0  0  0  0
   36.9613  -18.4681   37.3217 C   0  0  0  0  0  0  0  0  0  0  0  0
   36.0158  -17.4709   37.3805 C   0  0  0  0  0  0  0  0  0  0  0  0
  1  2  1  0  0  0
  2 19  1  0  0  0
 19 21  1  0  0  0
 21 26  1  0  0  0
 26 27  1  0  0  0
 27 28  1  0  0  0
 28 29  2  0  0  0
 29 30  1  0  0  0
 30 31  2  0  0  0
 31 32  1  0  0  0
 32 33  2  0  0  0
 21 22  1  0  0  0
 22 23  2  0  0  0
 22 24  1  0  0  0
  2  3  1  0  0  0
  3  4  2  0  0  0
  3  5  1  0  0  0
  5  6  1  0  0  0
  6  7  1  0  0  0
  7  8  2  0  0  0
  8  9  1  0  0  0
  9 10  2  0  0  0
 10 11  1  0  0  0
 11 12  2  0  0  0
 12 13  1  0  0  0
 13 14  1  0  0  0
 14 15  1  0  0  0
 15 16  2  0  0  0
 15 17  1  0  0  0
 33 28  1  0  0  0
 14  5  1  0  0  0
 12  7  1  0  0  0
 19 20  1  0  0  0
 24 25  1  0  0  0
 17 18  1  0  0  0
M  END
> <minimizedAffinity>
-6.50878

> <CNNscore>
0.3125085235

> <CNNaffinity>
5.4091196060

> <CNN_VS>
1.6903959513

> <CNNaffinity_variance>
0.2492844760

$$$$
[H]OC(=O)[C@@]1([H])N(C(=O)[C@@]([H])(N([H])[C@]([H])(C(=O)O[H])C([H])([H])C([H])([H])c2c([H])c([H])c([H])c([H])c2[H])C([H])([H])[H])C([H])([H])c2c([H])c([H])c([H])c([H])c2C1([H])[H]


 33 35  0  0  0  0  0  0  0  0999 V2000
   38.4459  -21.3322   36.7226 C   0  0  0  0  0  0  0  0  0  0  0  0
   38.5005  -20.0157   35.9314 C   0  0  0  0  0  0  0  0  0  0  0  0
   39.2462  -20.2997   34.7022 C   0  0  0  0  0  0  0  0  0  0  0  0
   38.5472  -20.4439   33.6393 O   0  0  0  0  0  0  0  0  0  0  0  0
   40.6447  -20.4302   34.5667 N   0  0  0  0  0  0  0  0  0  0  0  0
   41.1727  -20.7657   33.2237 C   0  0  0  0  0  0  0  0  0  0  0  0
   41.9136  -22.0726   33.3763 C   0  0  0  0  0  0  0  0  0  0  0  0
   41.7378  -23.1477   32.5473 C   0  0  0  0  0  0  0  0  0  0  0  0
   42.4505  -24.3326   32.7930 C   0  0  0  0  0  0  0  0  0  0  0  0
   43.3087  -24.3678   33.8712 C   0  0  0  0  0  0  0  0  0  0  0  0
   43.4668  -23.2499   34.7008 C   0  0  0  0  0  0  0  0  0  0  0  0
   42.7732  -22.0842   34.4675 C   0  0  0  0  0  0  0  0  0  0  0  0
   42.9222  -20.8729   35.2720 C   0  0  0  0  0  0  0  0  0  0  0  0
   41.6046  -20.2580   35.6201 C   0  0  0  0  0  0  0  0  0  0  0  0
   41.7646  -18.8191   35.9806 C   0  0  0  0  0  0  0  0  0  0  0  0
   42.0655  -17.9982   35.0994 O   0  0  0  0  0  0  0  0  0  0  0  0
   41.5768  -18.4289   37.2750 O   0  0  0  0  0  0  0  0  0  0  0  0
   40.6413  -18.5310   37.6650 H   0  0  0  0  0  0  0  0  0  0  0  0
   37.1025  -19.6942   35.6662 N   0  0  0  0  0  0  0  0  0  0  0  0
   36.9471  -19.8983   34.6461 H   0  0  0  0  0  0  0  0  0  0  0  0
   36.9113  -18.2734   35.8435 C   0  0  0  0  0  0  0  0  0  0  0  0
   36.3490  -17.9656   37.1912 C   0  0  0  0  0  0  0  0  0  0  0  0
   36.3552  -16.8030   37.6672 O   0  0  0  0  0  0  0  0  0  0  0  0
   35.7887  -18.9549   37.9874 O   0  0  0  0  0  0  0  0  0  0  0  0
   36.1874  -19.8745   38.1089 H   0  0  0  0  0  0  0  0  0  0  0  0
   36.0684  -17.6743   34.7465 C   0  0  0  0  0  0  0  0  0  0  0  0
   35.4479  -18.7337   33.8665 C   0  0  0  0  0  0  0  0  0  0  0  0
   34.0423  -19.0154   34.2505 C   0  0  0  0  0  0  0  0  0  0  0  0
   33.3615  -20.1292   33.7754 C   0  0  0  0  0  0  0  0  0  0  0  0
   32.0569  -20.4175   34.1101 C   0  0  0  0  0  0  0  0  0  0  0  0
   31.3710  -19.5711   34.9591 C   0  0  0  0  0  0  0  0  0  0  0  0
   32.0251  -18.4449   35.4534 C   0  0  0  0  0  0  0  0  0  0  0  0
   33.3288  -18.1879   35.0980 C   0  0  0  0  0  0  0  0  0  0  0  0
  1  2  1  0  0  0
  2 19  1  0  0  0
 19 21  1  0  0  0
 21 26  1  0  0  0
 26 27  1  0  0  0
 27 28  1  0  0  0
 28 29  2  0  0  0
 29 30  1  0  0  0
 30 31  2  0  0  0
 31 32  1  0  0  0
 32 33  2  0  0  0
 21 22  1  0  0  0
 22 23  2  0  0  0
 22 24  1  0  0  0
  2  3  1  0  0  0
  3  4  2  0  0  0
  3  5  1  0  0  0
  5  6  1  0  0  0
  6  7  1  0  0  0
  7  8  2  0  0  0
  8  9  1  0  0  0
  9 10  2  0  0  0
 10 11  1  0  0  0
 11 12  2  0  0  0
 12 13  1  0  0  0
 13 14  1  0  0  0
 14 15  1  0  0  0
 15 16  2  0  0  0
 15 17  1  0  0  0
 33 28  1  0  0  0
 14  5  1  0  0  0
 12  7  1  0  0  0
 19 20  1  0  0  0
 24 25  1  0  0  0
 17 18  1  0  0  0
M  END
> <minimizedAffinity>
-5.37589

> <CNNscore>
0.1910889745

> <CNNaffinity>
4.3143210411

> <CNN_VS>
0.8244192004

> <CNNaffinity_variance>
0.2387489378

$$$$
[H]OC(=O)[C@@]1([H])N(C(=O)[C@@]([H])(N([H])[C@]([H])(C(=O)O[H])C([H])([H])C([H])([H])c2c([H])c([H])c([H])c([H])c2[H])C([H])([H])[H])C([H])([H])c2c([H])c([H])c([H])c([H])c2C1([H])[H]


 33 35  0  0  0  0  0  0  0  0999 V2000
   39.1672  -19.6652   33.1565 C   0  0  0  0  0  0  0  0  0  0  0  0
   38.4963  -19.7836   34.5342 C   0  0  0  0  0  0  0  0  0  0  0  0
   39.3136  -20.7156   35.3161 C   0  0  0  0  0  0  0  0  0  0  0  0
   38.8903  -21.9224   35.3766 O   0  0  0  0  0  0  0  0  0  0  0  0
   40.5103  -20.4256   36.0052 N   0  0  0  0  0  0  0  0  0  0  0  0
   41.1420  -21.5258   36.7703 C   0  0  0  0  0  0  0  0  0  0  0  0
   41.1939  -21.0645   38.2072 C   0  0  0  0  0  0  0  0  0  0  0  0
   40.7745  -21.8248   39.2655 C   0  0  0  0  0  0  0  0  0  0  0  0
   40.8321  -21.2923   40.5637 C   0  0  0  0  0  0  0  0  0  0  0  0
   41.3139  -20.0107   40.7239 C   0  0  0  0  0  0  0  0  0  0  0  0
   41.7361  -19.2583   39.6201 C   0  0  0  0  0  0  0  0  0  0  0  0
   41.6840  -19.7720   38.3442 C   0  0  0  0  0  0  0  0  0  0  0  0
   42.1441  -19.0532   37.1575 C   0  0  0  0  0  0  0  0  0  0  0  0
   41.1754  -19.1536   36.0230 C   0  0  0  0  0  0  0  0  0  0  0  0
   41.8465  -18.8720   34.7205 C   0  0  0  0  0  0  0  0  0  0  0  0
   42.5683  -19.7403   34.2048 O   0  0  0  0  0  0  0  0  0  0  0  0
   41.6546  -17.6630   34.1167 O   0  0  0  0  0  0  0  0  0  0  0  0
   40.7125  -17.4412   33.7992 H   0  0  0  0  0  0  0  0  0  0  0  0
   38.5361  -18.4290   35.0742 N   0  0  0  0  0  0  0  0  0  0  0  0
   38.9657  -18.5112   36.0308 H   0  0  0  0  0  0  0  0  0  0  0  0
   37.1813  -17.9639   35.2613 C   0  0  0  0  0  0  0  0  0  0  0  0
   36.8482  -17.8324   36.7101 C   0  0  0  0  0  0  0  0  0  0  0  0
   36.7146  -18.8332   37.4576 O   0  0  0  0  0  0  0  0  0  0  0  0
   36.6694  -16.5907   37.3042 O   0  0  0  0  0  0  0  0  0  0  0  0
   36.1571  -15.8310   36.8803 H   0  0  0  0  0  0  0  0  0  0  0  0
   36.1802  -18.8332   34.5439 C   0  0  0  0  0  0  0  0  0  0  0  0
   34.9558  -18.0563   34.1210 C   0  0  0  0  0  0  0  0  0  0  0  0
   33.7074  -18.8227   34.3585 C   0  0  0  0  0  0  0  0  0  0  0  0
   33.5340  -20.1115   33.8697 C   0  0  0  0  0  0  0  0  0  0  0  0
   32.3875  -20.8481   34.0699 C   0  0  0  0  0  0  0  0  0  0  0  0
   31.3446  -20.2986   34.7897 C   0  0  0  0  0  0  0  0  0  0  0  0
   31.4865  -19.0077   35.2938 C   0  0  0  0  0  0  0  0  0  0  0  0
   32.6459  -18.3008   35.0746 C   0  0  0  0  0  0  0  0  0  0  0  0
  1  2  1  0  0  0
  2 19  1  0  0  0
 19 21  1  0  0  0
 21 26  1  0  0  0
 26 27  1  0  0  0
 27 28  1  0  0  0
 28 29  2  0  0  0
 29 30  1  0  0  0
 30 31  2  0  0  0
 31 32  1  0  0  0
 32 33  2  0  0  0
 21 22  1  0  0  0
 22 23  2  0  0  0
 22 24  1  0  0  0
  2  3  1  0  0  0
  3  4  2  0  0  0
  3  5  1  0  0  0
  5  6  1  0  0  0
  6  7  1  0  0  0
  7  8  2  0  0  0
  8  9  1  0  0  0
  9 10  2  0  0  0
 10 11  1  0  0  0
 11 12  2  0  0  0
 12 13  1  0  0  0
 13 14  1  0  0  0
 14 15  1  0  0  0
 15 16  2  0  0  0
 15 17  1  0  0  0
 33 28  1  0  0  0
 14  5  1  0  0  0
 12  7  1  0  0  0
 19 20  1  0  0  0
 24 25  1  0  0  0
 17 18  1  0  0  0
M  END
> <minimizedAffinity>
-6.04144

> <CNNscore>
0.1846574694

> <CNNaffinity>
4.3947205544

> <CNN_VS>
0.8115179539

> <CNNaffinity_variance>
0.5205827951

$$$$
[H]OC(=O)[C@@]1([H])N(C(=O)[C@@]([H])(N([H])[C@]([H])(C(=O)O[H])C([H])([H])C([H])([H])c2c([H])c([H])c([H])c([H])c2[H])C([H])([H])[H])C([H])([H])c2c([H])c([H])c([H])c([H])c2C1([H])[H]


 33 35  0  0  0  0  0  0  0  0999 V2000
   41.5818  -18.8896   33.2279 C   0  0  0  0  0  0  0  0  0  0  0  0
   40.9678  -19.6785   34.3953 C   0  0  0  0  0  0  0  0  0  0  0  0
   42.0899  -20.2018   35.1796 C   0  0  0  0  0  0  0  0  0  0  0  0
   42.3342  -21.4518   35.0494 O   0  0  0  0  0  0  0  0  0  0  0  0
   42.9245  -19.4783   36.0577 N   0  0  0  0  0  0  0  0  0  0  0  0
   43.9736  -20.2338   36.7811 C   0  0  0  0  0  0  0  0  0  0  0  0
   43.6873  -20.0497   38.2522 C   0  0  0  0  0  0  0  0  0  0  0  0
   43.6411  -21.0798   39.1527 C   0  0  0  0  0  0  0  0  0  0  0  0
   43.3329  -20.8091   40.4958 C   0  0  0  0  0  0  0  0  0  0  0  0
   43.0860  -19.5026   40.8595 C   0  0  0  0  0  0  0  0  0  0  0  0
   43.1416  -18.4704   39.9138 C   0  0  0  0  0  0  0  0  0  0  0  0
   43.4435  -18.7259   38.5955 C   0  0  0  0  0  0  0  0  0  0  0  0
   43.5544  -17.6903   37.5699 C   0  0  0  0  0  0  0  0  0  0  0  0
   42.8496  -18.0663   36.3060 C   0  0  0  0  0  0  0  0  0  0  0  0
   43.3713  -17.2818   35.1491 C   0  0  0  0  0  0  0  0  0  0  0  0
   44.3307  -17.7215   34.4956 O   0  0  0  0  0  0  0  0  0  0  0  0
   42.7836  -16.0925   34.8280 O   0  0  0  0  0  0  0  0  0  0  0  0
   41.8163  -16.1177   34.5097 H   0  0  0  0  0  0  0  0  0  0  0  0
   40.1933  -18.6877   35.1346 N   0  0  0  0  0  0  0  0  0  0  0  0
   40.5225  -18.7482   36.1317 H   0  0  0  0  0  0  0  0  0  0  0  0
   38.8043  -19.0842   35.1268 C   0  0  0  0  0  0  0  0  0  0  0  0
   38.6643  -20.5700   35.1129 C   0  0  0  0  0  0  0  0  0  0  0  0
   38.7728  -21.2602   36.1570 O   0  0  0  0  0  0  0  0  0  0  0  0
   38.4056  -21.2641   33.9390 O   0  0  0  0  0  0  0  0  0  0  0  0
   38.8546  -21.0670   33.0565 H   0  0  0  0  0  0  0  0  0  0  0  0
   38.0407  -18.4497   33.9923 C   0  0  0  0  0  0  0  0  0  0  0  0
   36.9113  -17.5776   34.4877 C   0  0  0  0  0  0  0  0  0  0  0  0
   35.6973  -18.3722   34.7996 C   0  0  0  0  0  0  0  0  0  0  0  0
   34.9496  -18.9899   33.8048 C   0  0  0  0  0  0  0  0  0  0  0  0
   33.8174  -19.7314   34.0604 C   0  0  0  0  0  0  0  0  0  0  0  0
   33.3845  -19.8823   35.3633 C   0  0  0  0  0  0  0  0  0  0  0  0
   34.1120  -19.2754   36.3846 C   0  0  0  0  0  0  0  0  0  0  0  0
   35.2384  -18.5419   36.0928 C   0  0  0  0  0  0  0  0  0  0  0  0
  1  2  1  0  0  0
  2 19  1  0  0  0
 19 21  1  0  0  0
 21 26  1  0  0  0
 26 27  1  0  0  0
 27 28  1  0  0  0
 28 29  2  0  0  0
 29 30  1  0  0  0
 30 31  2  0  0  0
 31 32  1  0  0  0
 32 33  2  0  0  0
 21 22  1  0  0  0
 22 23  2  0  0  0
 22 24  1  0  0  0
  2  3  1  0  0  0
  3  4  2  0  0  0
  3  5  1  0  0  0
  5  6  1  0  0  0
  6  7  1  0  0  0
  7  8  2  0  0  0
  8  9  1  0  0  0
  9 10  2  0  0  0
 10 11  1  0  0  0
 11 12  2  0  0  0
 12 13  1  0  0  0
 13 14  1  0  0  0
 14 15  1  0  0  0
 15 16  2  0  0  0
 15 17  1  0  0  0
 33 28  1  0  0  0
 14  5  1  0  0  0
 12  7  1  0  0  0
 19 20  1  0  0  0
 24 25  1  0  0  0
 17 18  1  0  0  0
M  END
> <minimizedAffinity>
-6.33530

> <CNNscore>
0.1820188761

> <CNNaffinity>
4.5083918571

> <CNN_VS>
0.8206124306

> <CNNaffinity_variance>
0.2762608230

$$$$
[H]OC(=O)[C@@]1([H])N(C(=O)[C@@]([H])(N([H])[C@]([H])(C(=O)O[H])C([H])([H])C([H])([H])c2c([H])c([H])c([H])c([H])c2[H])C([H])([H])[H])C([H])([H])c2c([H])c([H])c([H])c([H])c2C1([H])[H]


 33 35  0  0  0  0  0  0  0  0999 V2000
   35.2417  -19.8497   39.5486 C   0  0  0  0  0  0  0  0  0  0  0  0
   35.4129  -20.4252   38.1339 C   0  0  0  0  0  0  0  0  0  0  0  0
   36.1000  -19.3974   37.3469 C   0  0  0  0  0  0  0  0  0  0  0  0
   37.3528  -19.2591   37.5717 O   0  0  0  0  0  0  0  0  0  0  0  0
   35.5305  -18.5491   36.3737 N   0  0  0  0  0  0  0  0  0  0  0  0
   36.4179  -17.5491   35.7354 C   0  0  0  0  0  0  0  0  0  0  0  0
   35.8208  -16.1971   36.0445 C   0  0  0  0  0  0  0  0  0  0  0  0
   36.5413  -15.1418   36.5356 C   0  0  0  0  0  0  0  0  0  0  0  0
   35.8866  -13.9333   36.8234 C   0  0  0  0  0  0  0  0  0  0  0  0
   34.5288  -13.8554   36.5979 C   0  0  0  0  0  0  0  0  0  0  0  0
   33.8198  -14.9536   36.0938 C   0  0  0  0  0  0  0  0  0  0  0  0
   34.4530  -16.1418   35.8082 C   0  0  0  0  0  0  0  0  0  0  0  0
   33.7778  -17.3098   35.2456 C   0  0  0  0  0  0  0  0  0  0  0  0
   34.1619  -18.5763   35.9412 C   0  0  0  0  0  0  0  0  0  0  0  0
   33.8866  -19.7637   35.0807 C   0  0  0  0  0  0  0  0  0  0  0  0
   33.1389  -20.6617   35.4997 O   0  0  0  0  0  0  0  0  0  0  0  0
   34.4617  -19.8423   33.8454 O   0  0  0  0  0  0  0  0  0  0  0  0
   34.1867  -19.1463   33.1544 H   0  0  0  0  0  0  0  0  0  0  0  0
   36.2350  -21.6153   38.3239 N   0  0  0  0  0  0  0  0  0  0  0  0
   37.2246  -21.2714   38.4182 H   0  0  0  0  0  0  0  0  0  0  0  0
   36.1813  -22.4135   37.1211 C   0  0  0  0  0  0  0  0  0  0  0  0
   35.0633  -23.4006   37.1746 C   0  0  0  0  0  0  0  0  0  0  0  0
   34.9732  -24.2579   38.0885 O   0  0  0  0  0  0  0  0  0  0  0  0
   34.0637  -23.4185   36.2117 O   0  0  0  0  0  0  0  0  0  0  0  0
   34.2321  -23.3149   35.2217 H   0  0  0  0  0  0  0  0  0  0  0  0
   37.4974  -23.0888   36.8305 C   0  0  0  0  0  0  0  0  0  0  0  0
   38.4321  -23.0415   38.0161 C   0  0  0  0  0  0  0  0  0  0  0  0
   39.8313  -23.3475   37.6275 C   0  0  0  0  0  0  0  0  0  0  0  0
   40.8848  -22.5035   37.9559 C   0  0  0  0  0  0  0  0  0  0  0  0
   42.1932  -22.7570   37.6080 C   0  0  0  0  0  0  0  0  0  0  0  0
   42.4971  -23.9015   36.8970 C   0  0  0  0  0  0  0  0  0  0  0  0
   41.4633  -24.7691   36.5518 C   0  0  0  0  0  0  0  0  0  0  0  0
   40.1678  -24.4843   36.9159 C   0  0  0  0  0  0  0  0  0  0  0  0
  1  2  1  0  0  0
  2 19  1  0  0  0
 19 21  1  0  0  0
 21 26  1  0  0  0
 26 27  1  0  0  0
 27 28  1  0  0  0
 28 29  2  0  0  0
 29 30  1  0  0  0
 30 31  2  0  0  0
 31 32  1  0  0  0
 32 33  2  0  0  0
 21 22  1  0  0  0
 22 23  2  0  0  0
 22 24  1  0  0  0
  2  3  1  0  0  0
  3  4  2  0  0  0
  3  5  1  0  0  0
  5  6  1  0  0  0
  6  7  1  0  0  0
  7  8  2  0  0  0
  8  9  1  0  0  0
  9 10  2  0  0  0
 10 11  1  0  0  0
 11 12  2  0  0  0
 12 13  1  0  0  0
 13 14  1  0  0  0
 14 15  1  0  0  0
 15 16  2  0  0  0
 15 17  1  0  0  0
 33 28  1  0  0  0
 14  5  1  0  0  0
 12  7  1  0  0  0
 19 20  1  0  0  0
 24 25  1  0  0  0
 17 18  1  0  0  0
M  END
> <minimizedAffinity>
-5.20082

> <CNNscore>
0.1741734445

> <CNNaffinity>
4.3739633560

> <CNN_VS>
0.7618282437

> <CNNaffinity_variance>
0.1897588819

$$$$
[H]OC(=O)[C@@]1([H])N(C(=O)[C@@]([H])(N([H])[C@]([H])(C(=O)O[H])C([H])([H])C([H])([H])c2c([H])c([H])c([H])c([H])c2[H])C([H])([H])[H])C([H])([H])c2c([H])c([H])c([H])c([H])c2C1([H])[H]


 33 35  0  0  0  0  0  0  0  0999 V2000
   35.9063  -15.5668   37.1940 C   0  0  0  0  0  0  0  0  0  0  0  0
   35.2655  -15.9567   35.8525 C   0  0  0  0  0  0  0  0  0  0  0  0
   34.7287  -17.3094   36.0255 C   0  0  0  0  0  0  0  0  0  0  0  0
   33.4534  -17.4067   36.0833 O   0  0  0  0  0  0  0  0  0  0  0  0
   35.4640  -18.5088   36.1343 N   0  0  0  0  0  0  0  0  0  0  0  0
   34.7015  -19.7605   36.3504 C   0  0  0  0  0  0  0  0  0  0  0  0
   35.1900  -20.3310   37.6604 C   0  0  0  0  0  0  0  0  0  0  0  0
   34.3589  -20.7554   38.6620 C   0  0  0  0  0  0  0  0  0  0  0  0
   34.9116  -21.2400   39.8586 C   0  0  0  0  0  0  0  0  0  0  0  0
   36.2844  -21.2700   39.9797 C   0  0  0  0  0  0  0  0  0  0  0  0
   37.1079  -20.8289   38.9357 C   0  0  0  0  0  0  0  0  0  0  0  0
   36.5754  -20.3529   37.7591 C   0  0  0  0  0  0  0  0  0  0  0  0
   37.3795  -19.9144   36.6198 C   0  0  0  0  0  0  0  0  0  0  0  0
   36.8923  -18.6226   36.0459 C   0  0  0  0  0  0  0  0  0  0  0  0
   37.3662  -18.4487   34.6420 C   0  0  0  0  0  0  0  0  0  0  0  0
   36.5873  -18.6733   33.7019 O   0  0  0  0  0  0  0  0  0  0  0  0
   38.6500  -18.0445   34.4146 O   0  0  0  0  0  0  0  0  0  0  0  0
   38.9111  -17.1117   34.7294 H   0  0  0  0  0  0  0  0  0  0  0  0
   34.2123  -14.9671   35.6529 N   0  0  0  0  0  0  0  0  0  0  0  0
   34.3351  -14.6077   34.6720 H   0  0  0  0  0  0  0  0  0  0  0  0
   34.4486  -13.8523   36.5407 C   0  0  0  0  0  0  0  0  0  0  0  0
   33.1842  -13.3996   37.1915 C   0  0  0  0  0  0  0  0  0  0  0  0
   33.0575  -13.3490   38.4404 O   0  0  0  0  0  0  0  0  0  0  0  0
   32.0816  -13.0102   36.4436 O   0  0  0  0  0  0  0  0  0  0  0  0
   31.7556  -13.4990   35.6226 H   0  0  0  0  0  0  0  0  0  0  0  0
   35.1471  -12.7122   35.8443 C   0  0  0  0  0  0  0  0  0  0  0  0
   35.6263  -11.6620   36.8185 C   0  0  0  0  0  0  0  0  0  0  0  0
   34.9581  -10.3560   36.5940 C   0  0  0  0  0  0  0  0  0  0  0  0
   33.8174   -9.9858   37.2953 C   0  0  0  0  0  0  0  0  0  0  0  0
   33.1722   -8.7833   37.1086 C   0  0  0  0  0  0  0  0  0  0  0  0
   33.6656   -7.8846   36.1832 C   0  0  0  0  0  0  0  0  0  0  0  0
   34.8083   -8.2254   35.4629 C   0  0  0  0  0  0  0  0  0  0  0  0
   35.4272   -9.4353   35.6752 C   0  0  0  0  0  0  0  0  0  0  0  0
  1  2  1  0  0  0
  2 19  1  0  0  0
 19 21  1  0  0  0
 21 26  1  0  0  0
 26 27  1  0  0  0
 27 28  1  0  0  0
 28 29  2  0  0  0
 29 30  1  0  0  0
 30 31  2  0  0  0
 31 32  1  0  0  0
 32 33  2  0  0  0
 21 22  1  0  0  0
 22 23  2  0  0  0
 22 24  1  0  0  0
  2  3  1  0  0  0
  3  4  2  0  0  0
  3  5  1  0  0  0
  5  6  1  0  0  0
  6  7  1  0  0  0
  7  8  2  0  0  0
  8  9  1  0  0  0
  9 10  2  0  0  0
 10 11  1  0  0  0
 11 12  2  0  0  0
 12 13  1  0  0  0
 13 14  1  0  0  0
 14 15  1  0  0  0
 15 16  2  0  0  0
 15 17  1  0  0  0
 33 28  1  0  0  0
 14  5  1  0  0  0
 12  7  1  0  0  0
 19 20  1  0  0  0
 24 25  1  0  0  0
 17 18  1  0  0  0
M  END
> <minimizedAffinity>
-6.86837

> <CNNscore>
0.1710614413

> <CNNaffinity>
5.1409449577

> <CNN_VS>
0.8794174790

> <CNNaffinity_variance>
0.1065155044

$$$$
[H]OC(=O)[C@@]1([H])N(C(=O)[C@@]([H])(N([H])[C@]([H])(C(=O)O[H])C([H])([H])C([H])([H])c2c([H])c([H])c([H])c([H])c2[H])C([H])([H])[H])C([H])([H])c2c([H])c([H])c([H])c([H])c2C1([H])[H]


 33 35  0  0  0  0  0  0  0  0999 V2000
   36.9811  -17.5904   36.2625 C   0  0  0  0  0  0  0  0  0  0  0  0
   37.5917  -18.6161   35.2944 C   0  0  0  0  0  0  0  0  0  0  0  0
   38.8110  -19.1178   35.9344 C   0  0  0  0  0  0  0  0  0  0  0  0
   38.6796  -19.5607   37.1284 O   0  0  0  0  0  0  0  0  0  0  0  0
   40.1067  -19.1639   35.3775 N   0  0  0  0  0  0  0  0  0  0  0  0
   41.2012  -19.6753   36.2351 C   0  0  0  0  0  0  0  0  0  0  0  0
   42.2059  -18.5540   36.3500 C   0  0  0  0  0  0  0  0  0  0  0  0
   42.7368  -18.1273   37.5375 C   0  0  0  0  0  0  0  0  0  0  0  0
   43.6403  -17.0522   37.5430 C   0  0  0  0  0  0  0  0  0  0  0  0
   43.9611  -16.4616   36.3394 C   0  0  0  0  0  0  0  0  0  0  0  0
   43.4008  -16.9222   35.1407 C   0  0  0  0  0  0  0  0  0  0  0  0
   42.5150  -17.9755   35.1254 C   0  0  0  0  0  0  0  0  0  0  0  0
   41.9261  -18.5267   33.9064 C   0  0  0  0  0  0  0  0  0  0  0  0
   40.4563  -18.7637   34.0440 C   0  0  0  0  0  0  0  0  0  0  0  0
   39.9776  -19.7537   33.0356 C   0  0  0  0  0  0  0  0  0  0  0  0
   40.5539  -20.8484   32.9326 O   0  0  0  0  0  0  0  0  0  0  0  0
   38.9123  -19.4389   32.2425 O   0  0  0  0  0  0  0  0  0  0  0  0
   38.0104  -19.3089   32.6977 H   0  0  0  0  0  0  0  0  0  0  0  0
   36.5696  -19.6495   35.1695 N   0  0  0  0  0  0  0  0  0  0  0  0
   36.3051  -19.6735   34.1517 H   0  0  0  0  0  0  0  0  0  0  0  0
   35.3948  -19.2309   35.8983 C   0  0  0  0  0  0  0  0  0  0  0  0
   34.9326  -20.2933   36.8391 C   0  0  0  0  0  0  0  0  0  0  0  0
   34.0812  -20.0672   37.7347 O   0  0  0  0  0  0  0  0  0  0  0  0
   35.4241  -21.5895   36.7685 O   0  0  0  0  0  0  0  0  0  0  0  0
   36.3972  -21.8168   36.6247 H   0  0  0  0  0  0  0  0  0  0  0  0
   34.2847  -18.7907   34.9782 C   0  0  0  0  0  0  0  0  0  0  0  0
   33.6481  -19.9574   34.2603 C   0  0  0  0  0  0  0  0  0  0  0  0
   32.2382  -20.1585   34.6776 C   0  0  0  0  0  0  0  0  0  0  0  0
   31.7838  -21.3786   35.1623 C   0  0  0  0  0  0  0  0  0  0  0  0
   30.4821  -21.5986   35.5549 C   0  0  0  0  0  0  0  0  0  0  0  0
   29.5646  -20.5695   35.4715 C   0  0  0  0  0  0  0  0  0  0  0  0
   29.9881  -19.3330   34.9894 C   0  0  0  0  0  0  0  0  0  0  0  0
   31.2962  -19.1488   34.6062 C   0  0  0  0  0  0  0  0  0  0  0  0
  1  2  1  0  0  0
  2 19  1  0  0  0
 19 21  1  0  0  0
 21 26  1  0  0  0
 26 27  1  0  0  0
 27 28  1  0  0  0
 28 29  2  0  0  0
 29 30  1  0  0  0
 30 31  2  0  0  0
 31 32  1  0  0  0
 32 33  2  0  0  0
 21 22  1  0  0  0
 22 23  2  0  0  0
 22 24  1  0  0  0
  2  3  1  0  0  0
  3  4  2  0  0  0
  3  5  1  0  0  0
  5  6  1  0  0  0
  6  7  1  0  0  0
  7  8  2  0  0  0
  8  9  1  0  0  0
  9 10  2  0  0  0
 10 11  1  0  0  0
 11 12  2  0  0  0
 12 13  1  0  0  0
 13 14  1  0  0  0
 14 15  1  0  0  0
 15 16  2  0  0  0
 15 17  1  0  0  0
 33 28  1  0  0  0
 14  5  1  0  0  0
 12  7  1  0  0  0
 19 20  1  0  0  0
 24 25  1  0  0  0
 17 18  1  0  0  0
M  END
> <minimizedAffinity>
-6.77958

> <CNNscore>
0.1667742282

> <CNNaffinity>
4.5904746056

> <CNN_VS>
0.7655728459

> <CNNaffinity_variance>
0.2769915462

$$$$
[H]OC(=O)[C@@]1([H])N(C(=O)[C@@]([H])(N([H])[C@]([H])(C(=O)O[H])C([H])([H])C([H])([H])c2c([H])c([H])c([H])c([H])c2[H])C([H])([H])[H])C([H])([H])c2c([H])c([H])c([H])c([H])c2C1([H])[H]


 33 35  0  0  0  0  0  0  0  0999 V2000
   32.6533  -17.8645   35.2757 C   0  0  0  0  0  0  0  0  0  0  0  0
   32.6963  -19.3549   35.6485 C   0  0  0  0  0  0  0  0  0  0  0  0
   31.3435  -19.8765   35.4344 C   0  0  0  0  0  0  0  0  0  0  0  0
   30.5536  -19.1326   34.7550 O   0  0  0  0  0  0  0  0  0  0  0  0
   30.8226  -21.1044   35.8949 N   0  0  0  0  0  0  0  0  0  0  0  0
   29.4030  -21.4009   35.5921 C   0  0  0  0  0  0  0  0  0  0  0  0
   28.7150  -21.5750   36.9249 C   0  0  0  0  0  0  0  0  0  0  0  0
   27.5410  -20.9564   37.2613 C   0  0  0  0  0  0  0  0  0  0  0  0
   26.9973  -21.1564   38.5406 C   0  0  0  0  0  0  0  0  0  0  0  0
   27.6741  -21.9767   39.4178 C   0  0  0  0  0  0  0  0  0  0  0  0
   28.8735  -22.5960   39.0428 C   0  0  0  0  0  0  0  0  0  0  0  0
   29.4137  -22.4065   37.7911 C   0  0  0  0  0  0  0  0  0  0  0  0
   30.6397  -23.0530   37.3267 C   0  0  0  0  0  0  0  0  0  0  0  0
   31.5541  -22.0985   36.6279 C   0  0  0  0  0  0  0  0  0  0  0  0
   32.5152  -22.8257   35.7483 C   0  0  0  0  0  0  0  0  0  0  0  0
   33.5656  -23.2765   36.2324 O   0  0  0  0  0  0  0  0  0  0  0  0
   32.2225  -22.9838   34.4246 O   0  0  0  0  0  0  0  0  0  0  0  0
   31.4121  -23.5537   34.1878 H   0  0  0  0  0  0  0  0  0  0  0  0
   33.6630  -19.9326   34.7212 N   0  0  0  0  0  0  0  0  0  0  0  0
   33.6097  -20.9740   34.8591 H   0  0  0  0  0  0  0  0  0  0  0  0
   34.9900  -19.5242   35.1199 C   0  0  0  0  0  0  0  0  0  0  0  0
   35.3040  -19.9789   36.5063 C   0  0  0  0  0  0  0  0  0  0  0  0
   35.1868  -19.2195   37.5002 O   0  0  0  0  0  0  0  0  0  0  0  0
   35.7427  -21.2701   36.7651 O   0  0  0  0  0  0  0  0  0  0  0  0
   36.4253  -21.7573   36.2029 H   0  0  0  0  0  0  0  0  0  0  0  0
   35.1941  -18.0381   34.9694 C   0  0  0  0  0  0  0  0  0  0  0  0
   36.5252  -17.5901   35.5254 C   0  0  0  0  0  0  0  0  0  0  0  0
   36.4341  -16.2535   36.1638 C   0  0  0  0  0  0  0  0  0  0  0  0
   37.1647  -15.9327   37.3011 C   0  0  0  0  0  0  0  0  0  0  0  0
   37.1007  -14.7034   37.9189 C   0  0  0  0  0  0  0  0  0  0  0  0
   36.2758  -13.7247   37.3998 C   0  0  0  0  0  0  0  0  0  0  0  0
   35.5294  -14.0143   36.2597 C   0  0  0  0  0  0  0  0  0  0  0  0
   35.6180  -15.2531   35.6685 C   0  0  0  0  0  0  0  0  0  0  0  0
  1  2  1  0  0  0
  2 19  1  0  0  0
 19 21  1  0  0  0
 21 26  1  0  0  0
 26 27  1  0  0  0
 27 28  1  0  0  0
 28 29  2  0  0  0
 29 30  1  0  0  0
 30 31  2  0  0  0
 31 32  1  0  0  0
 32 33  2  0  0  0
 21 22  1  0  0  0
 22 23  2  0  0  0
 22 24  1  0  0  0
  2  3  1  0  0  0
  3  4  2  0  0  0
  3  5  1  0  0  0
  5  6  1  0  0  0
  6  7  1  0  0  0
  7  8  2  0  0  0
  8  9  1  0  0  0
  9 10  2  0  0  0
 10 11  1  0  0  0
 11 12  2  0  0  0
 12 13  1  0  0  0
 13 14  1  0  0  0
 14 15  1  0  0  0
 15 16  2  0  0  0
 15 17  1  0  0  0
 33 28  1  0  0  0
 14  5  1  0  0  0
 12  7  1  0  0  0
 19 20  1  0  0  0
 24 25  1  0  0  0
 17 18  1  0  0  0
M  END
> <minimizedAffinity>
-6.41447

> <CNNscore>
0.1608555466

> <CNNaffinity>
4.4331121445

> <CNN_VS>
0.7130906582

> <CNNaffinity_variance>
0.3259615004

$$$$
[H]OC(=O)[C@@]1([H])N(C(=O)[C@@]([H])(N([H])[C@]([H])(C(=O)O[H])C([H])([H])C([H])([H])c2c([H])c([H])c([H])c([H])c2[H])C([H])([H])[H])C([H])([H])c2c([H])c([H])c([H])c([H])c2C1([H])[H]


 33 35  0  0  0  0  0  0  0  0999 V2000
   38.4222  -18.7593   33.8713 C   0  0  0  0  0  0  0  0  0  0  0  0
   37.7754  -18.8215   35.2640 C   0  0  0  0  0  0  0  0  0  0  0  0
   38.8051  -19.3219   36.1790 C   0  0  0  0  0  0  0  0  0  0  0  0
   39.7246  -18.4914   36.5012 O   0  0  0  0  0  0  0  0  0  0  0  0
   38.8900  -20.6143   36.7390 N   0  0  0  0  0  0  0  0  0  0  0  0
   40.0534  -20.9072   37.6083 C   0  0  0  0  0  0  0  0  0  0  0  0
   40.7852  -22.0578   36.9598 C   0  0  0  0  0  0  0  0  0  0  0  0
   42.1358  -22.0711   36.7368 C   0  0  0  0  0  0  0  0  0  0  0  0
   42.7187  -23.1759   36.0950 C   0  0  0  0  0  0  0  0  0  0  0  0
   41.8994  -24.2156   35.7101 C   0  0  0  0  0  0  0  0  0  0  0  0
   40.5204  -24.1721   35.9534 C   0  0  0  0  0  0  0  0  0  0  0  0
   39.9403  -23.0939   36.5823 C   0  0  0  0  0  0  0  0  0  0  0  0
   38.5160  -23.0049   36.8986 C   0  0  0  0  0  0  0  0  0  0  0  0
   37.9389  -21.6718   36.5446 C   0  0  0  0  0  0  0  0  0  0  0  0
   36.6789  -21.4166   37.3018 C   0  0  0  0  0  0  0  0  0  0  0  0
   36.7394  -20.9327   38.4433 O   0  0  0  0  0  0  0  0  0  0  0  0
   35.4792  -21.7193   36.7255 O   0  0  0  0  0  0  0  0  0  0  0  0
   35.2110  -21.1931   35.8956 H   0  0  0  0  0  0  0  0  0  0  0  0
   37.4048  -17.4405   35.5535 N   0  0  0  0  0  0  0  0  0  0  0  0
   38.2895  -16.9619   35.8610 H   0  0  0  0  0  0  0  0  0  0  0  0
   36.5064  -17.4283   36.6846 C   0  0  0  0  0  0  0  0  0  0  0  0
   35.1341  -17.8641   36.2922 C   0  0  0  0  0  0  0  0  0  0  0  0
   34.6239  -18.9290   36.7213 O   0  0  0  0  0  0  0  0  0  0  0  0
   34.3512  -17.1091   35.4298 O   0  0  0  0  0  0  0  0  0  0  0  0
   34.7005  -16.6665   34.5923 H   0  0  0  0  0  0  0  0  0  0  0  0
   36.4814  -16.0875   37.3732 C   0  0  0  0  0  0  0  0  0  0  0  0
   36.4696  -14.9441   36.3863 C   0  0  0  0  0  0  0  0  0  0  0  0
   35.4923  -13.8951   36.7695 C   0  0  0  0  0  0  0  0  0  0  0  0
   34.3766  -14.1810   37.5463 C   0  0  0  0  0  0  0  0  0  0  0  0
   33.4498  -13.2318   37.9166 C   0  0  0  0  0  0  0  0  0  0  0  0
   33.6172  -11.9235   37.5068 C   0  0  0  0  0  0  0  0  0  0  0  0
   34.7259  -11.6034   36.7265 C   0  0  0  0  0  0  0  0  0  0  0  0
   35.6316  -12.5771   36.3753 C   0  0  0  0  0  0  0  0  0  0  0  0
  1  2  1  0  0  0
  2 19  1  0  0  0
 19 21  1  0  0  0
 21 26  1  0  0  0
 26 27  1  0  0  0
 27 28  1  0  0  0
 28 29  2  0  0  0
 29 30  1  0  0  0
 30 31  2  0  0  0
 31 32  1  0  0  0
 32 33  2  0  0  0
 21 22  1  0  0  0
 22 23  2  0  0  0
 22 24  1  0  0  0
  2  3  1  0  0  0
  3  4  2  0  0  0
  3  5  1  0  0  0
  5  6  1  0  0  0
  6  7  1  0  0  0
  7  8  2  0  0  0
  8  9  1  0  0  0
  9 10  2  0  0  0
 10 11  1  0  0  0
 11 12  2  0  0  0
 12 13  1  0  0  0
 13 14  1  0  0  0
 14 15  1  0  0  0
 15 16  2  0  0  0
 15 17  1  0  0  0
 33 28  1  0  0  0
 14  5  1  0  0  0
 12  7  1  0  0  0
 19 20  1  0  0  0
 24 25  1  0  0  0
 17 18  1  0  0  0
M  END
> <minimizedAffinity>
-6.00983

> <CNNscore>
0.1426530033

> <CNNaffinity>
4.5716161728

> <CNN_VS>
0.6521548033

> <CNNaffinity_variance>
0.2196082622

$$$$
[H]OC(=O)[C@@]1([H])N(c2nc(C#N)nc([H])c2[H])C([H])([H])[C@@]([H])(S(=O)(=O)c2c([H])c([H])c([H])c([H])c2C(F)(F)F)C1([H])[H]


 30 32  0  0  0  0  0  0  0  0999 V2000
   35.1185  -15.1636   36.2374 N   0  0  0  0  0  0  0  0  0  0  0  0
   33.8820  -14.6884   36.8202 C   0  0  0  0  0  0  0  0  0  0  0  0
   33.9810  -13.1798   36.4621 C   0  0  0  0  0  0  0  0  0  0  0  0
   35.3606  -12.9012   36.8928 C   0  0  0  0  0  0  0  0  0  0  0  0
   36.1202  -14.1959   36.5448 C   0  0  0  0  0  0  0  0  0  0  0  0
   34.3090  -18.2719   34.4798 C   0  0  0  0  0  0  0  0  0  0  0  0
   35.5202  -18.7096   34.0925 N   0  0  0  0  0  0  0  0  0  0  0  0
   36.6506  -18.0170   34.3840 C   0  0  0  0  0  0  0  0  0  0  0  0
   36.4822  -16.8471   35.0954 C   0  0  0  0  0  0  0  0  0  0  0  0
   35.2537  -16.3734   35.5058 C   0  0  0  0  0  0  0  0  0  0  0  0
   34.1817  -17.1258   35.1728 N   0  0  0  0  0  0  0  0  0  0  0  0
   32.1974  -19.6753   33.8728 N   0  0  0  0  0  0  0  0  0  0  0  0
   33.1512  -19.0480   34.1418 C   0  0  0  0  0  0  0  0  0  0  0  0
   37.0088  -14.5874   37.6488 C   0  0  0  0  0  0  0  0  0  0  0  0
   38.0649  -13.9553   37.8503 O   0  0  0  0  0  0  0  0  0  0  0  0
   36.6874  -15.6481   38.4667 O   0  0  0  0  0  0  0  0  0  0  0  0
   37.3094  -16.4323   38.6454 H   0  0  0  0  0  0  0  0  0  0  0  0
   32.7173  -12.3128   37.4236 S   0  0  0  0  0  0  0  0  0  0  0  0
   31.4181  -12.8074   36.8590 O   0  0  0  0  0  0  0  0  0  0  0  0
   32.9357  -12.8007   38.8132 O   0  0  0  0  0  0  0  0  0  0  0  0
   32.8632  -10.6005   37.2095 C   0  0  0  0  0  0  0  0  0  0  0  0
   34.0780  -10.1135   36.8153 C   0  0  0  0  0  0  0  0  0  0  0  0
   34.2317   -8.7594   36.6117 C   0  0  0  0  0  0  0  0  0  0  0  0
   33.1914   -7.8848   36.7949 C   0  0  0  0  0  0  0  0  0  0  0  0
   31.9886   -8.4133   37.1901 C   0  0  0  0  0  0  0  0  0  0  0  0
   31.7774   -9.7823   37.4118 C   0  0  0  0  0  0  0  0  0  0  0  0
   30.4530  -10.2375   37.8342 C   0  0  0  0  0  0  0  0  0  0  0  0
   30.4271  -11.0908   38.9133 F   0  0  0  0  0  0  0  0  0  0  0  0
   29.6502  -10.6755   36.8004 F   0  0  0  0  0  0  0  0  0  0  0  0
   29.7567   -9.1121   38.3085 F   0  0  0  0  0  0  0  0  0  0  0  0
 12 13  3  0  0  0
 13  6  1  0  0  0
  6  7  2  0  0  0
  7  8  1  0  0  0
  8  9  2  0  0  0
  9 10  1  0  0  0
 10  1  1  0  0  0
  1  2  1  0  0  0
  2  3  1  0  0  0
  3 18  1  0  0  0
 18 19  2  0  0  0
 18 20  2  0  0  0
 18 21  1  0  0  0
 21 22  2  0  0  0
 22 23  1  0  0  0
 23 24  2  0  0  0
 24 25  1  0  0  0
 25 26  2  0  0  0
 26 27  1  0  0  0
 27 28  1  0  0  0
 27 29  1  0  0  0
 27 30  1  0  0  0
  3  4  1  0  0  0
  4  5  1  0  0  0
  5 14  1  0  0  0
 14 15  2  0  0  0
 14 16  1  0  0  0
 10 11  2  0  0  0
 11  6  1  0  0  0
  5  1  1  0  0  0
 26 21  1  0  0  0
 16 17  1  0  0  0
M  END
> <minimizedAffinity>
-8.50444

> <CNNscore>
0.2306949943

> <CNNaffinity>
5.3411321640

> <CNN_VS>
1.2321724892

> <CNNaffinity_variance>
0.3632994294

$$$$
[H]OC(=O)[C@@]1([H])N(c2nc(C#N)nc([H])c2[H])C([H])([H])[C@@]([H])(S(=O)(=O)c2c([H])c([H])c([H])c([H])c2C(F)(F)F)C1([H])[H]


 30 32  0  0  0  0  0  0  0  0999 V2000
   34.9132  -17.2611   35.7205 N   0  0  0  0  0  0  0  0  0  0  0  0
   34.0195  -17.7580   34.6964 C   0  0  0  0  0  0  0  0  0  0  0  0
   33.5348  -19.0673   35.3782 C   0  0  0  0  0  0  0  0  0  0  0  0
   34.8250  -19.6254   35.8144 C   0  0  0  0  0  0  0  0  0  0  0  0
   35.6447  -18.3826   36.2120 C   0  0  0  0  0  0  0  0  0  0  0  0
   36.2550  -14.0769   36.9317 C   0  0  0  0  0  0  0  0  0  0  0  0
   35.1753  -13.2759   36.8979 N   0  0  0  0  0  0  0  0  0  0  0  0
   33.9668  -13.7327   36.4815 C   0  0  0  0  0  0  0  0  0  0  0  0
   33.9147  -15.0570   36.0986 C   0  0  0  0  0  0  0  0  0  0  0  0
   35.0044  -15.9019   36.1225 C   0  0  0  0  0  0  0  0  0  0  0  0
   36.1678  -15.3643   36.5508 N   0  0  0  0  0  0  0  0  0  0  0  0
   38.5300  -13.1052   37.7545 N   0  0  0  0  0  0  0  0  0  0  0  0
   37.5049  -13.5362   37.3815 C   0  0  0  0  0  0  0  0  0  0  0  0
   37.0151  -18.4770   35.6880 C   0  0  0  0  0  0  0  0  0  0  0  0
   37.9442  -18.8350   36.4392 O   0  0  0  0  0  0  0  0  0  0  0  0
   37.2863  -18.1735   34.3722 O   0  0  0  0  0  0  0  0  0  0  0  0
   37.9925  -17.5024   34.0811 H   0  0  0  0  0  0  0  0  0  0  0  0
   32.6921  -20.0527   34.1164 S   0  0  0  0  0  0  0  0  0  0  0  0
   31.8168  -19.0668   33.4000 O   0  0  0  0  0  0  0  0  0  0  0  0
   33.8011  -20.5371   33.2491 O   0  0  0  0  0  0  0  0  0  0  0  0
   31.7360  -21.2928   34.8561 C   0  0  0  0  0  0  0  0  0  0  0  0
   32.2789  -22.5443   34.9409 C   0  0  0  0  0  0  0  0  0  0  0  0
   31.5611  -23.5552   35.5420 C   0  0  0  0  0  0  0  0  0  0  0  0
   30.3105  -23.3356   36.0600 C   0  0  0  0  0  0  0  0  0  0  0  0
   29.8014  -22.0659   35.9555 C   0  0  0  0  0  0  0  0  0  0  0  0
   30.4883  -21.0011   35.3536 C   0  0  0  0  0  0  0  0  0  0  0  0
   29.8494  -19.6866   35.2944 C   0  0  0  0  0  0  0  0  0  0  0  0
   29.3559  -19.3135   34.0654 F   0  0  0  0  0  0  0  0  0  0  0  0
   30.5754  -18.6783   35.8956 F   0  0  0  0  0  0  0  0  0  0  0  0
   28.6923  -19.7488   36.0903 F   0  0  0  0  0  0  0  0  0  0  0  0
 12 13  3  0  0  0
 13  6  1  0  0  0
  6  7  2  0  0  0
  7  8  1  0  0  0
  8  9  2  0  0  0
  9 10  1  0  0  0
 10  1  1  0  0  0
  1  2  1  0  0  0
  2  3  1  0  0  0
  3 18  1  0  0  0
 18 19  2  0  0  0
 18 20  2  0  0  0
 18 21  1  0  0  0
 21 22  2  0  0  0
 22 23  1  0  0  0
 23 24  2  0  0  0
 24 25  1  0  0  0
 25 26  2  0  0  0
 26 27  1  0  0  0
 27 28  1  0  0  0
 27 29  1  0  0  0
 27 30  1  0  0  0
  3  4  1  0  0  0
  4  5  1  0  0  0
  5 14  1  0  0  0
 14 15  2  0  0  0
 14 16  1  0  0  0
 10 11  2  0  0  0
 11  6  1  0  0  0
  5  1  1  0  0  0
 26 21  1  0  0  0
 16 17  1  0  0  0
M  END
> <minimizedAffinity>
-6.62347

> <CNNscore>
0.1929770261

> <CNNaffinity>
4.8630585670

> <CNN_VS>
0.9384585619

> <CNNaffinity_variance>
0.4381939769

$$$$
[H]OC(=O)[C@@]1([H])N(c2nc(C#N)nc([H])c2[H])C([H])([H])[C@@]([H])(S(=O)(=O)c2c([H])c([H])c([H])c([H])c2C(F)(F)F)C1([H])[H]


 30 32  0  0  0  0  0  0  0  0999 V2000
   38.4301  -20.4765   37.6738 N   0  0  0  0  0  0  0  0  0  0  0  0
   37.1788  -20.5876   36.9554 C   0  0  0  0  0  0  0  0  0  0  0  0
   36.1877  -20.1871   38.0830 C   0  0  0  0  0  0  0  0  0  0  0  0
   36.6893  -21.0300   39.1804 C   0  0  0  0  0  0  0  0  0  0  0  0
   38.2156  -21.0349   38.9686 C   0  0  0  0  0  0  0  0  0  0  0  0
   41.8532  -19.2070   37.3951 C   0  0  0  0  0  0  0  0  0  0  0  0
   41.9118  -18.8114   36.1112 N   0  0  0  0  0  0  0  0  0  0  0  0
   40.8455  -18.9388   35.2809 C   0  0  0  0  0  0  0  0  0  0  0  0
   39.7083  -19.4940   35.8302 C   0  0  0  0  0  0  0  0  0  0  0  0
   39.6186  -19.9087   37.1424 C   0  0  0  0  0  0  0  0  0  0  0  0
   40.7270  -19.7448   37.8978 N   0  0  0  0  0  0  0  0  0  0  0  0
   43.9619  -18.9028   38.8976 N   0  0  0  0  0  0  0  0  0  0  0  0
   43.0131  -19.0464   38.2232 C   0  0  0  0  0  0  0  0  0  0  0  0
   38.7562  -22.3926   39.1296 C   0  0  0  0  0  0  0  0  0  0  0  0
   37.9832  -23.3713   39.1460 O   0  0  0  0  0  0  0  0  0  0  0  0
   40.1117  -22.5976   39.2629 O   0  0  0  0  0  0  0  0  0  0  0  0
   40.5318  -23.1181   40.0287 H   0  0  0  0  0  0  0  0  0  0  0  0
   34.5244  -20.6211   37.5187 S   0  0  0  0  0  0  0  0  0  0  0  0
   34.6817  -21.9870   36.9181 O   0  0  0  0  0  0  0  0  0  0  0  0
   33.7255  -20.6599   38.7746 O   0  0  0  0  0  0  0  0  0  0  0  0
   33.9754  -19.4901   36.3276 C   0  0  0  0  0  0  0  0  0  0  0  0
   34.7169  -18.3570   36.1420 C   0  0  0  0  0  0  0  0  0  0  0  0
   34.3281  -17.4411   35.1888 C   0  0  0  0  0  0  0  0  0  0  0  0
   33.2113  -17.6396   34.4182 C   0  0  0  0  0  0  0  0  0  0  0  0
   32.4948  -18.7894   34.6348 C   0  0  0  0  0  0  0  0  0  0  0  0
   32.8452  -19.7539   35.5913 C   0  0  0  0  0  0  0  0  0  0  0  0
   32.0073  -20.9436   35.7403 C   0  0  0  0  0  0  0  0  0  0  0  0
   31.5032  -21.1691   37.0006 F   0  0  0  0  0  0  0  0  0  0  0  0
   32.5422  -22.0850   35.1779 F   0  0  0  0  0  0  0  0  0  0  0  0
   30.8483  -20.7365   34.9722 F   0  0  0  0  0  0  0  0  0  0  0  0
 12 13  3  0  0  0
 13  6  1  0  0  0
  6  7  2  0  0  0
  7  8  1  0  0  0
  8  9  2  0  0  0
  9 10  1  0  0  0
 10  1  1  0  0  0
  1  2  1  0  0  0
  2  3  1  0  0  0
  3 18  1  0  0  0
 18 19  2  0  0  0
 18 20  2  0  0  0
 18 21  1  0  0  0
 21 22  2  0  0  0
 22 23  1  0  0  0
 23 24  2  0  0  0
 24 25  1  0  0  0
 25 26  2  0  0  0
 26 27  1  0  0  0
 27 28  1  0  0  0
 27 29  1  0  0  0
 27 30  1  0  0  0
  3  4  1  0  0  0
  4  5  1  0  0  0
  5 14  1  0  0  0
 14 15  2  0  0  0
 14 16  1  0  0  0
 10 11  2  0  0  0
 11  6  1  0  0  0
  5  1  1  0  0  0
 26 21  1  0  0  0
 16 17  1  0  0  0
M  END
> <minimizedAffinity>
-5.03231

> <CNNscore>
0.1649943590

> <CNNaffinity>
4.3179788589

> <CNN_VS>
0.7124421597

> <CNNaffinity_variance>
0.3384658098

$$$$
[H]OC(=O)[C@@]1([H])N(c2nc(C#N)nc([H])c2[H])C([H])([H])[C@@]([H])(S(=O)(=O)c2c([H])c([H])c([H])c([H])c2C(F)(F)F)C1([H])[H]


 30 32  0  0  0  0  0  0  0  0999 V2000
   35.0020  -15.1272   36.3030 N   0  0  0  0  0  0  0  0  0  0  0  0
   33.7906  -14.6729   36.9514 C   0  0  0  0  0  0  0  0  0  0  0  0
   33.8487  -13.1615   36.5956 C   0  0  0  0  0  0  0  0  0  0  0  0
   35.2446  -12.8640   36.9554 C   0  0  0  0  0  0  0  0  0  0  0  0
   36.0041  -14.1458   36.5624 C   0  0  0  0  0  0  0  0  0  0  0  0
   36.4291  -17.9761   34.4992 C   0  0  0  0  0  0  0  0  0  0  0  0
   35.3335  -18.6596   34.1238 N   0  0  0  0  0  0  0  0  0  0  0  0
   34.0859  -18.2271   34.4386 C   0  0  0  0  0  0  0  0  0  0  0  0
   34.0117  -17.0541   35.1609 C   0  0  0  0  0  0  0  0  0  0  0  0
   35.1169  -16.3320   35.5596 C   0  0  0  0  0  0  0  0  0  0  0  0
   36.3195  -16.8349   35.2033 N   0  0  0  0  0  0  0  0  0  0  0  0
   38.7799  -18.8875   33.8359 N   0  0  0  0  0  0  0  0  0  0  0  0
   37.7205  -18.4838   34.1364 C   0  0  0  0  0  0  0  0  0  0  0  0
   36.9545  -14.5283   37.6170 C   0  0  0  0  0  0  0  0  0  0  0  0
   37.9673  -13.8303   37.8235 O   0  0  0  0  0  0  0  0  0  0  0  0
   36.7388  -15.6527   38.3827 O   0  0  0  0  0  0  0  0  0  0  0  0
   37.4222  -16.3964   38.4994 H   0  0  0  0  0  0  0  0  0  0  0  0
   32.6240  -12.3173   37.6255 S   0  0  0  0  0  0  0  0  0  0  0  0
   31.3067  -12.8592   37.1539 O   0  0  0  0  0  0  0  0  0  0  0  0
   32.9470  -12.7764   39.0045 O   0  0  0  0  0  0  0  0  0  0  0  0
   32.7031  -10.6050   37.3785 C   0  0  0  0  0  0  0  0  0  0  0  0
   33.9100  -10.0726   37.0207 C   0  0  0  0  0  0  0  0  0  0  0  0
   34.0122   -8.7175   36.7927 C   0  0  0  0  0  0  0  0  0  0  0  0
   32.9282   -7.8866   36.9157 C   0  0  0  0  0  0  0  0  0  0  0  0
   31.7350   -8.4600   37.2759 C   0  0  0  0  0  0  0  0  0  0  0  0
   31.5754   -9.8321   37.5202 C   0  0  0  0  0  0  0  0  0  0  0  0
   30.2565  -10.3371   37.9012 C   0  0  0  0  0  0  0  0  0  0  0  0
   30.2338  -11.2240   38.9529 F   0  0  0  0  0  0  0  0  0  0  0  0
   29.4870  -10.7651   36.8382 F   0  0  0  0  0  0  0  0  0  0  0  0
   29.5191   -9.2470   38.3952 F   0  0  0  0  0  0  0  0  0  0  0  0
 12 13  3  0  0  0
 13  6  1  0  0  0
  6  7  2  0  0  0
  7  8  1  0  0  0
  8  9  2  0  0  0
  9 10  1  0  0  0
 10  1  1  0  0  0
  1  2  1  0  0  0
  2  3  1  0  0  0
  3 18  1  0  0  0
 18 19  2  0  0  0
 18 20  2  0  0  0
 18 21  1  0  0  0
 21 22  2  0  0  0
 22 23  1  0  0  0
 23 24  2  0  0  0
 24 25  1  0  0  0
 25 26  2  0  0  0
 26 27  1  0  0  0
 27 28  1  0  0  0
 27 29  1  0  0  0
 27 30  1  0  0  0
  3  4  1  0  0  0
  4  5  1  0  0  0
  5 14  1  0  0  0
 14 15  2  0  0  0
 14 16  1  0  0  0
 10 11  2  0  0  0
 11  6  1  0  0  0
  5  1  1  0  0  0
 26 21  1  0  0  0
 16 17  1  0  0  0
M  END
> <minimizedAffinity>
-8.63481

> <CNNscore>
0.1385719478

> <CNNaffinity>
5.3287286758

> <CNN_VS>
0.7384123206

> <CNNaffinity_variance>
0.3588010669

$$$$
[H]OC(=O)[C@@]1([H])N(c2nc(C#N)nc([H])c2[H])C([H])([H])[C@@]([H])(S(=O)(=O)c2c([H])c([H])c([H])c([H])c2C(F)(F)F)C1([H])[H]


 30 32  0  0  0  0  0  0  0  0999 V2000
   36.1697  -17.6303   36.7424 N   0  0  0  0  0  0  0  0  0  0  0  0
   35.2888  -18.5863   37.3784 C   0  0  0  0  0  0  0  0  0  0  0  0
   36.3279  -19.6543   37.8186 C   0  0  0  0  0  0  0  0  0  0  0  0
   37.0901  -19.8050   36.5685 C   0  0  0  0  0  0  0  0  0  0  0  0
   37.1155  -18.3802   35.9823 C   0  0  0  0  0  0  0  0  0  0  0  0
   34.8168  -14.2280   36.7642 C   0  0  0  0  0  0  0  0  0  0  0  0
   35.8760  -13.4976   37.1553 N   0  0  0  0  0  0  0  0  0  0  0  0
   37.0734  -14.0755   37.4286 C   0  0  0  0  0  0  0  0  0  0  0  0
   37.1365  -15.4457   37.2819 C   0  0  0  0  0  0  0  0  0  0  0  0
   36.0678  -16.2207   36.8828 C   0  0  0  0  0  0  0  0  0  0  0  0
   34.9142  -15.5634   36.6315 N   0  0  0  0  0  0  0  0  0  0  0  0
   32.5599  -13.0241   36.2602 N   0  0  0  0  0  0  0  0  0  0  0  0
   33.5777  -13.5599   36.4898 C   0  0  0  0  0  0  0  0  0  0  0  0
   36.8329  -18.4087   34.5398 C   0  0  0  0  0  0  0  0  0  0  0  0
   37.1257  -17.4260   33.8298 O   0  0  0  0  0  0  0  0  0  0  0  0
   36.2465  -19.5123   33.9607 O   0  0  0  0  0  0  0  0  0  0  0  0
   35.4046  -19.4717   33.3920 H   0  0  0  0  0  0  0  0  0  0  0  0
   35.4076  -21.1338   38.3060 S   0  0  0  0  0  0  0  0  0  0  0  0
   34.1093  -20.6034   38.8393 O   0  0  0  0  0  0  0  0  0  0  0  0
   35.2182  -21.8685   37.0249 O   0  0  0  0  0  0  0  0  0  0  0  0
   36.2640  -22.0009   39.5363 C   0  0  0  0  0  0  0  0  0  0  0  0
   37.4843  -21.5176   39.9179 C   0  0  0  0  0  0  0  0  0  0  0  0
   38.1896  -22.1643   40.9093 C   0  0  0  0  0  0  0  0  0  0  0  0
   37.6951  -23.2852   41.5255 C   0  0  0  0  0  0  0  0  0  0  0  0
   36.4670  -23.7379   41.1144 C   0  0  0  0  0  0  0  0  0  0  0  0
   35.7075  -23.1188   40.1105 C   0  0  0  0  0  0  0  0  0  0  0  0
   34.4097  -23.6883   39.7485 C   0  0  0  0  0  0  0  0  0  0  0  0
   34.2710  -24.0813   38.4372 F   0  0  0  0  0  0  0  0  0  0  0  0
   33.3278  -22.9556   40.1932 F   0  0  0  0  0  0  0  0  0  0  0  0
   34.2731  -24.8969   40.4535 F   0  0  0  0  0  0  0  0  0  0  0  0
 12 13  3  0  0  0
 13  6  1  0  0  0
  6  7  2  0  0  0
  7  8  1  0  0  0
  8  9  2  0  0  0
  9 10  1  0  0  0
 10  1  1  0  0  0
  1  2  1  0  0  0
  2  3  1  0  0  0
  3 18  1  0  0  0
 18 19  2  0  0  0
 18 20  2  0  0  0
 18 21  1  0  0  0
 21 22  2  0  0  0
 22 23  1  0  0  0
 23 24  2  0  0  0
 24 25  1  0  0  0
 25 26  2  0  0  0
 26 27  1  0  0  0
 27 28  1  0  0  0
 27 29  1  0  0  0
 27 30  1  0  0  0
  3  4  1  0  0  0
  4  5  1  0  0  0
  5 14  1  0  0  0
 14 15  2  0  0  0
 14 16  1  0  0  0
 10 11  2  0  0  0
 11  6  1  0  0  0
  5  1  1  0  0  0
 26 21  1  0  0  0
 16 17  1  0  0  0
M  END
> <minimizedAffinity>
-5.40477

> <CNNscore>
0.1297367513

> <CNNaffinity>
4.6859331131

> <CNN_VS>
0.6079377532

> <CNNaffinity_variance>
0.1836422682

$$$$
[H]OC(=O)[C@@]1([H])N(c2nc(C#N)nc([H])c2[H])C([H])([H])[C@@]([H])(S(=O)(=O)c2c([H])c([H])c([H])c([H])c2C(F)(F)F)C1([H])[H]


 30 32  0  0  0  0  0  0  0  0999 V2000
   34.0162  -19.8226   36.2934 N   0  0  0  0  0  0  0  0  0  0  0  0
   35.0971  -18.9439   36.6857 C   0  0  0  0  0  0  0  0  0  0  0  0
   34.4111  -17.5661   36.4729 C   0  0  0  0  0  0  0  0  0  0  0  0
   33.8370  -17.7667   35.1325 C   0  0  0  0  0  0  0  0  0  0  0  0
   33.4159  -19.2489   35.1337 C   0  0  0  0  0  0  0  0  0  0  0  0
   32.8777  -23.2405   36.9479 C   0  0  0  0  0  0  0  0  0  0  0  0
   32.9787  -23.3282   38.2861 N   0  0  0  0  0  0  0  0  0  0  0  0
   33.4197  -22.2845   39.0335 C   0  0  0  0  0  0  0  0  0  0  0  0
   33.7549  -21.1386   38.3423 C   0  0  0  0  0  0  0  0  0  0  0  0
   33.6619  -21.0192   36.9716 C   0  0  0  0  0  0  0  0  0  0  0  0
   33.2136  -22.1066   36.3063 N   0  0  0  0  0  0  0  0  0  0  0  0
   32.0192  -25.3146   35.6221 N   0  0  0  0  0  0  0  0  0  0  0  0
   32.4051  -24.3776   36.2128 C   0  0  0  0  0  0  0  0  0  0  0  0
   33.8083  -19.8997   33.8751 C   0  0  0  0  0  0  0  0  0  0  0  0
   34.8565  -19.5511   33.2960 O   0  0  0  0  0  0  0  0  0  0  0  0
   33.0292  -20.8938   33.3257 O   0  0  0  0  0  0  0  0  0  0  0  0
   32.6836  -20.8773   32.3697 H   0  0  0  0  0  0  0  0  0  0  0  0
   35.7044  -16.3029   36.5416 S   0  0  0  0  0  0  0  0  0  0  0  0
   36.4929  -16.6465   37.7710 O   0  0  0  0  0  0  0  0  0  0  0  0
   36.4910  -16.5364   35.2991 O   0  0  0  0  0  0  0  0  0  0  0  0
   35.0029  -14.7263   36.6874 C   0  0  0  0  0  0  0  0  0  0  0  0
   33.6606  -14.6075   36.4585 C   0  0  0  0  0  0  0  0  0  0  0  0
   33.0578  -13.3750   36.5855 C   0  0  0  0  0  0  0  0  0  0  0  0
   33.7743  -12.2601   36.9379 C   0  0  0  0  0  0  0  0  0  0  0  0
   35.1185  -12.4214   37.1596 C   0  0  0  0  0  0  0  0  0  0  0  0
   35.7823  -13.6518   37.0440 C   0  0  0  0  0  0  0  0  0  0  0  0
   37.2211  -13.7097   37.3012 C   0  0  0  0  0  0  0  0  0  0  0  0
   37.8615  -12.4964   37.4076 F   0  0  0  0  0  0  0  0  0  0  0  0
   37.9045  -14.5936   36.4908 F   0  0  0  0  0  0  0  0  0  0  0  0
   37.3942  -14.2679   38.5797 F   0  0  0  0  0  0  0  0  0  0  0  0
 12 13  3  0  0  0
 13  6  1  0  0  0
  6  7  2  0  0  0
  7  8  1  0  0  0
  8  9  2  0  0  0
  9 10  1  0  0  0
 10  1  1  0  0  0
  1  2  1  0  0  0
  2  3  1  0  0  0
  3 18  1  0  0  0
 18 19  2  0  0  0
 18 20  2  0  0  0
 18 21  1  0  0  0
 21 22  2  0  0  0
 22 23  1  0  0  0
 23 24  2  0  0  0
 24 25  1  0  0  0
 25 26  2  0  0  0
 26 27  1  0  0  0
 27 28  1  0  0  0
 27 29  1  0  0  0
 27 30  1  0  0  0
  3  4  1  0  0  0
  4  5  1  0  0  0
  5 14  1  0  0  0
 14 15  2  0  0  0
 14 16  1  0  0  0
 10 11  2  0  0  0
 11  6  1  0  0  0
  5  1  1  0  0  0
 26 21  1  0  0  0
 16 17  1  0  0  0
M  END
> <minimizedAffinity>
-6.55575

> <CNNscore>
0.1272671223

> <CNNaffinity>
4.6222248077

> <CNN_VS>
0.5882572532

> <CNNaffinity_variance>
0.1479233354

$$$$
[H]OC(=O)[C@@]1([H])N(c2nc(C#N)nc([H])c2[H])C([H])([H])[C@@]([H])(S(=O)(=O)c2c([H])c([H])c([H])c([H])c2C(F)(F)F)C1([H])[H]


 30 32  0  0  0  0  0  0  0  0999 V2000
   35.2255  -14.2230   37.2181 N   0  0  0  0  0  0  0  0  0  0  0  0
   35.0789  -15.2485   36.2077 C   0  0  0  0  0  0  0  0  0  0  0  0
   35.6397  -16.4711   36.9854 C   0  0  0  0  0  0  0  0  0  0  0  0
   36.8800  -15.8891   37.5236 C   0  0  0  0  0  0  0  0  0  0  0  0
   36.4923  -14.4317   37.8397 C   0  0  0  0  0  0  0  0  0  0  0  0
   33.5513  -10.9745   37.4440 C   0  0  0  0  0  0  0  0  0  0  0  0
   32.3877  -11.2891   38.0402 N   0  0  0  0  0  0  0  0  0  0  0  0
   32.0956  -12.5665   38.3946 C   0  0  0  0  0  0  0  0  0  0  0  0
   33.0570  -13.5135   38.1081 C   0  0  0  0  0  0  0  0  0  0  0  0
   34.2586  -13.2210   37.4978 C   0  0  0  0  0  0  0  0  0  0  0  0
   34.4668  -11.9243   37.1794 N   0  0  0  0  0  0  0  0  0  0  0  0
   33.9970   -8.4879   36.8000 N   0  0  0  0  0  0  0  0  0  0  0  0
   33.8024   -9.6067   37.0934 C   0  0  0  0  0  0  0  0  0  0  0  0
   37.5401  -13.5067   37.3835 C   0  0  0  0  0  0  0  0  0  0  0  0
   38.7249  -13.6925   37.7257 O   0  0  0  0  0  0  0  0  0  0  0  0
   37.2276  -12.4330   36.5792 O   0  0  0  0  0  0  0  0  0  0  0  0
   37.4823  -11.4726   36.7948 H   0  0  0  0  0  0  0  0  0  0  0  0
   35.9063  -17.7983   35.7851 S   0  0  0  0  0  0  0  0  0  0  0  0
   36.3198  -17.0859   34.5310 O   0  0  0  0  0  0  0  0  0  0  0  0
   37.0293  -18.5816   36.3699 O   0  0  0  0  0  0  0  0  0  0  0  0
   34.4410  -18.6850   35.5285 C   0  0  0  0  0  0  0  0  0  0  0  0
   33.6980  -18.3731   34.4244 C   0  0  0  0  0  0  0  0  0  0  0  0
   32.5364  -19.0693   34.1704 C   0  0  0  0  0  0  0  0  0  0  0  0
   32.1060  -20.0720   35.0010 C   0  0  0  0  0  0  0  0  0  0  0  0
   32.8801  -20.3548   36.0978 C   0  0  0  0  0  0  0  0  0  0  0  0
   34.0700  -19.6777   36.4037 C   0  0  0  0  0  0  0  0  0  0  0  0
   34.8169  -20.0599   37.6019 C   0  0  0  0  0  0  0  0  0  0  0  0
   35.0943  -19.0431   38.4865 F   0  0  0  0  0  0  0  0  0  0  0  0
   35.9193  -20.8519   37.3515 F   0  0  0  0  0  0  0  0  0  0  0  0
   33.9904  -20.9124   38.3545 F   0  0  0  0  0  0  0  0  0  0  0  0
 12 13  3  0  0  0
 13  6  1  0  0  0
  6  7  2  0  0  0
  7  8  1  0  0  0
  8  9  2  0  0  0
  9 10  1  0  0  0
 10  1  1  0  0  0
  1  2  1  0  0  0
  2  3  1  0  0  0
  3 18  1  0  0  0
 18 19  2  0  0  0
 18 20  2  0  0  0
 18 21  1  0  0  0
 21 22  2  0  0  0
 22 23  1  0  0  0
 23 24  2  0  0  0
 24 25  1  0  0  0
 25 26  2  0  0  0
 26 27  1  0  0  0
 27 28  1  0  0  0
 27 29  1  0  0  0
 27 30  1  0  0  0
  3  4  1  0  0  0
  4  5  1  0  0  0
  5 14  1  0  0  0
 14 15  2  0  0  0
 14 16  1  0  0  0
 10 11  2  0  0  0
 11  6  1  0  0  0
  5  1  1  0  0  0
 26 21  1  0  0  0
 16 17  1  0  0  0
M  END
> <minimizedAffinity>
-7.16128

> <CNNscore>
0.1047469750

> <CNNaffinity>
5.1280007362

> <CNN_VS>
0.5371425748

> <CNNaffinity_variance>
0.2870532274

$$$$
[H]OC(=O)[C@@]1([H])N(c2nc(C#N)nc([H])c2[H])C([H])([H])[C@@]([H])(S(=O)(=O)c2c([H])c([H])c([H])c([H])c2C(F)(F)F)C1([H])[H]


 30 32  0  0  0  0  0  0  0  0999 V2000
   33.3998  -13.3107   37.6243 N   0  0  0  0  0  0  0  0  0  0  0  0
   33.4650  -14.4180   36.6948 C   0  0  0  0  0  0  0  0  0  0  0  0
   34.8811  -14.9632   37.0286 C   0  0  0  0  0  0  0  0  0  0  0  0
   35.6520  -13.7094   37.0119 C   0  0  0  0  0  0  0  0  0  0  0  0
   34.6750  -12.6721   37.5982 C   0  0  0  0  0  0  0  0  0  0  0  0
   30.0539  -12.1457   38.5487 C   0  0  0  0  0  0  0  0  0  0  0  0
   30.0489  -12.3088   39.8836 N   0  0  0  0  0  0  0  0  0  0  0  0
   31.1287  -12.8028   40.5413 C   0  0  0  0  0  0  0  0  0  0  0  0
   32.2216  -13.1245   39.7633 C   0  0  0  0  0  0  0  0  0  0  0  0
   32.2559  -12.9684   38.3935 C   0  0  0  0  0  0  0  0  0  0  0  0
   31.1379  -12.4702   37.8208 N   0  0  0  0  0  0  0  0  0  0  0  0
   27.9189  -11.1997   37.3898 N   0  0  0  0  0  0  0  0  0  0  0  0
   28.8824  -11.6190   37.9107 C   0  0  0  0  0  0  0  0  0  0  0  0
   34.7043  -11.4306   36.8112 C   0  0  0  0  0  0  0  0  0  0  0  0
   34.1111  -10.4161   37.2289 O   0  0  0  0  0  0  0  0  0  0  0  0
   35.3818  -11.3743   35.6133 O   0  0  0  0  0  0  0  0  0  0  0  0
   34.9612  -11.0664   34.7403 H   0  0  0  0  0  0  0  0  0  0  0  0
   35.3339  -16.1267   35.7192 S   0  0  0  0  0  0  0  0  0  0  0  0
   34.0791  -16.2818   34.9114 O   0  0  0  0  0  0  0  0  0  0  0  0
   36.3931  -15.4071   34.9595 O   0  0  0  0  0  0  0  0  0  0  0  0
   35.8137  -17.6455   36.3991 C   0  0  0  0  0  0  0  0  0  0  0  0
   35.6220  -17.8271   37.7402 C   0  0  0  0  0  0  0  0  0  0  0  0
   35.9693  -19.0289   38.3179 C   0  0  0  0  0  0  0  0  0  0  0  0
   36.5041  -20.0517   37.5772 C   0  0  0  0  0  0  0  0  0  0  0  0
   36.6800  -19.8299   36.2348 C   0  0  0  0  0  0  0  0  0  0  0  0
   36.3446  -18.6267   35.5962 C   0  0  0  0  0  0  0  0  0  0  0  0
   36.5769  -18.4972   34.1578 C   0  0  0  0  0  0  0  0  0  0  0  0
   37.5557  -17.6046   33.7855 F   0  0  0  0  0  0  0  0  0  0  0  0
   35.4253  -18.3539   33.4105 F   0  0  0  0  0  0  0  0  0  0  0  0
   37.0862  -19.7268   33.7051 F   0  0  0  0  0  0  0  0  0  0  0  0
 12 13  3  0  0  0
 13  6  1  0  0  0
  6  7  2  0  0  0
  7  8  1  0  0  0
  8  9  2  0  0  0
  9 10  1  0  0  0
 10  1  1  0  0  0
  1  2  1  0  0  0
  2  3  1  0  0  0
  3 18  1  0  0  0
 18 19  2  0  0  0
 18 20  2  0  0  0
 18 21  1  0  0  0
 21 22  2  0  0  0
 22 23  1  0  0  0
 23 24  2  0  0  0
 24 25  1  0  0  0
 25 26  2  0  0  0
 26 27  1  0  0  0
 27 28  1  0  0  0
 27 29  1  0  0  0
 27 30  1  0  0  0
  3  4  1  0  0  0
  4  5  1  0  0  0
  5 14  1  0  0  0
 14 15  2  0  0  0
 14 16  1  0  0  0
 10 11  2  0  0  0
 11  6  1  0  0  0
  5  1  1  0  0  0
 26 21  1  0  0  0
 16 17  1  0  0  0
M  END
> <minimizedAffinity>
-5.86138

> <CNNscore>
0.1036560908

> <CNNaffinity>
4.8247113228

> <CNN_VS>
0.5001106858

> <CNNaffinity_variance>
0.1886542141

$$$$
[H]OC(=O)[C@@]1([H])N(c2nc(C#N)nc([H])c2[H])C([H])([H])[C@@]([H])(S(=O)(=O)c2c([H])c([H])c([H])c([H])c2C(F)(F)F)C1([H])[H]


 30 32  0  0  0  0  0  0  0  0999 V2000
   35.2969  -14.2502   37.2291 N   0  0  0  0  0  0  0  0  0  0  0  0
   35.1877  -15.2917   36.2303 C   0  0  0  0  0  0  0  0  0  0  0  0
   35.7686  -16.4902   37.0303 C   0  0  0  0  0  0  0  0  0  0  0  0
   36.9876  -15.8713   37.5758 C   0  0  0  0  0  0  0  0  0  0  0  0
   36.5606  -14.4199   37.8684 C   0  0  0  0  0  0  0  0  0  0  0  0
   33.5551  -11.0355   37.4250 C   0  0  0  0  0  0  0  0  0  0  0  0
   32.3784  -11.3768   37.9793 N   0  0  0  0  0  0  0  0  0  0  0  0
   32.0988  -12.6624   38.3133 C   0  0  0  0  0  0  0  0  0  0  0  0
   33.0868  -13.5889   38.0516 C   0  0  0  0  0  0  0  0  0  0  0  0
   34.3024  -13.2688   37.4843 C   0  0  0  0  0  0  0  0  0  0  0  0
   34.4967  -11.9658   37.1835 N   0  0  0  0  0  0  0  0  0  0  0  0
   33.9913   -8.5339   36.8345 N   0  0  0  0  0  0  0  0  0  0  0  0
   33.7920   -9.6602   37.0940 C   0  0  0  0  0  0  0  0  0  0  0  0
   37.5910  -13.4753   37.4129 C   0  0  0  0  0  0  0  0  0  0  0  0
   38.7774  -13.6331   37.7642 O   0  0  0  0  0  0  0  0  0  0  0  0
   37.2607  -12.4140   36.5995 O   0  0  0  0  0  0  0  0  0  0  0  0
   37.4930  -11.4469   36.8103 H   0  0  0  0  0  0  0  0  0  0  0  0
   36.0821  -17.8255   35.8505 S   0  0  0  0  0  0  0  0  0  0  0  0
   34.7811  -18.5694   35.7788 O   0  0  0  0  0  0  0  0  0  0  0  0
   36.3784  -17.1095   34.5791 O   0  0  0  0  0  0  0  0  0  0  0  0
   37.3453  -18.8594   36.4288 C   0  0  0  0  0  0  0  0  0  0  0  0
   38.5723  -18.7514   35.8361 C   0  0  0  0  0  0  0  0  0  0  0  0
   39.6114  -19.5396   36.2806 C   0  0  0  0  0  0  0  0  0  0  0  0
   39.4444  -20.4330   37.3075 C   0  0  0  0  0  0  0  0  0  0  0  0
   38.1982  -20.5108   37.8760 C   0  0  0  0  0  0  0  0  0  0  0  0
   37.1063  -19.7330   37.4626 C   0  0  0  0  0  0  0  0  0  0  0  0
   35.8197  -19.8989   38.1383 C   0  0  0  0  0  0  0  0  0  0  0  0
   34.8225  -20.4875   37.3951 F   0  0  0  0  0  0  0  0  0  0  0  0
   35.3816  -18.7715   38.8033 F   0  0  0  0  0  0  0  0  0  0  0  0
   36.0134  -20.8174   39.1848 F   0  0  0  0  0  0  0  0  0  0  0  0
 12 13  3  0  0  0
 13  6  1  0  0  0
  6  7  2  0  0  0
  7  8  1  0  0  0
  8  9  2  0  0  0
  9 10  1  0  0  0
 10  1  1  0  0  0
  1  2  1  0  0  0
  2  3  1  0  0  0
  3 18  1  0  0  0
 18 19  2  0  0  0
 18 20  2  0  0  0
 18 21  1  0  0  0
 21 22  2  0  0  0
 22 23  1  0  0  0
 23 24  2  0  0  0
 24 25  1  0  0  0
 25 26  2  0  0  0
 26 27  1  0  0  0
 27 28  1  0  0  0
 27 29  1  0  0  0
 27 30  1  0  0  0
  3  4  1  0  0  0
  4  5  1  0  0  0
  5 14  1  0  0  0
 14 15  2  0  0  0
 14 16  1  0  0  0
 10 11  2  0  0  0
 11  6  1  0  0  0
  5  1  1  0  0  0
 26 21  1  0  0  0
 16 17  1  0  0  0
M  END
> <minimizedAffinity>
-6.94279

> <CNNscore>
0.1017260775

> <CNNaffinity>
4.9116296768

> <CNN_VS>
0.4996408224

> <CNNaffinity_variance>
0.3677259982

$$$$
[H]c1c([H])c([H])c(C([H])([H])n2c([H])nc(-c3c([H])c([H])c(F)c([H])c3[H])c2-c2nn3c([H])c(N([H])C(=O)C(C([H])([H])[H])(C([H])([H])[H])C([H])([H])[H])nc3c([H])c2[H])c([H])c1[H]


 36 40  0  0  0  0  0  0  0  0999 V2000
   41.3439  -22.6959   35.7007 C   0  0  0  0  0  0  0  0  0  0  0  0
   42.5567  -22.4853   36.3211 C   0  0  0  0  0  0  0  0  0  0  0  0
   43.4413  -23.3212   35.7022 N   0  0  0  0  0  0  0  0  0  0  0  0
   42.8417  -24.0149   34.7574 C   0  0  0  0  0  0  0  0  0  0  0  0
   41.5334  -23.6176   34.7645 N   0  0  0  0  0  0  0  0  0  0  0  0
   37.3609  -18.5215   37.0029 C   0  0  0  0  0  0  0  0  0  0  0  0
   38.6802  -18.6819   36.6454 C   0  0  0  0  0  0  0  0  0  0  0  0
   38.9409  -20.0159   36.4968 N   0  0  0  0  0  0  0  0  0  0  0  0
   40.0445  -20.6526   36.1684 N   0  0  0  0  0  0  0  0  0  0  0  0
   40.1196  -21.9901   36.0693 C   0  0  0  0  0  0  0  0  0  0  0  0
   38.9609  -22.6817   36.3336 C   0  0  0  0  0  0  0  0  0  0  0  0
   37.7820  -22.0290   36.6826 C   0  0  0  0  0  0  0  0  0  0  0  0
   37.8013  -20.6665   36.7585 C   0  0  0  0  0  0  0  0  0  0  0  0
   36.8534  -19.7693   37.0622 N   0  0  0  0  0  0  0  0  0  0  0  0
   36.2376  -16.4828   36.1932 C   0  0  0  0  0  0  0  0  0  0  0  0
   36.4591  -16.8622   34.9930 O   0  0  0  0  0  0  0  0  0  0  0  0
   36.6859  -17.3115   37.2519 N   0  0  0  0  0  0  0  0  0  0  0  0
   36.5107  -17.0129   38.2257 H   0  0  0  0  0  0  0  0  0  0  0  0
   34.0851  -15.4322   35.9996 C   0  0  0  0  0  0  0  0  0  0  0  0
   35.5336  -15.2132   36.3836 C   0  0  0  0  0  0  0  0  0  0  0  0
   35.5804  -14.8099   37.8264 C   0  0  0  0  0  0  0  0  0  0  0  0
   36.0724  -14.1220   35.4848 C   0  0  0  0  0  0  0  0  0  0  0  0
   42.9464  -21.6094   37.4082 C   0  0  0  0  0  0  0  0  0  0  0  0
   43.6144  -20.4392   37.1369 C   0  0  0  0  0  0  0  0  0  0  0  0
   44.0044  -19.5628   38.1474 C   0  0  0  0  0  0  0  0  0  0  0  0
   43.7229  -19.8568   39.4664 C   0  0  0  0  0  0  0  0  0  0  0  0
   44.1056  -18.9982   40.4519 F   0  0  0  0  0  0  0  0  0  0  0  0
   43.0553  -21.0249   39.7459 C   0  0  0  0  0  0  0  0  0  0  0  0
   42.6743  -21.8865   38.7257 C   0  0  0  0  0  0  0  0  0  0  0  0
   40.5253  -24.1497   33.8618 C   0  0  0  0  0  0  0  0  0  0  0  0
   41.0722  -24.4124   32.5194 C   0  0  0  0  0  0  0  0  0  0  0  0
   40.9413  -25.6224   31.8888 C   0  0  0  0  0  0  0  0  0  0  0  0
   41.4393  -25.8845   30.6405 C   0  0  0  0  0  0  0  0  0  0  0  0
   42.1104  -24.8722   29.9819 C   0  0  0  0  0  0  0  0  0  0  0  0
   42.2573  -23.6411   30.5949 C   0  0  0  0  0  0  0  0  0  0  0  0
   41.7509  -23.4023   31.8437 C   0  0  0  0  0  0  0  0  0  0  0  0
 19 20  1  0  0  0
 20 21  1  0  0  0
 20 22  1  0  0  0
 20 15  1  0  0  0
 15 16  2  0  0  0
 15 17  1  0  0  0
 17  6  1  0  0  0
  6  7  2  0  0  0
  7  8  1  0  0  0
  8  9  1  0  0  0
  9 10  2  0  0  0
 10  1  1  0  0  0
  1  2  2  0  0  0
  2 23  1  0  0  0
 23 24  2  0  0  0
 24 25  1  0  0  0
 25 26  2  0  0  0
 26 27  1  0  0  0
 26 28  1  0  0  0
 28 29  2  0  0  0
  2  3  1  0  0  0
  3  4  2  0  0  0
  4  5  1  0  0  0
  5 30  1  0  0  0
 30 31  1  0  0  0
 31 32  2  0  0  0
 32 33  1  0  0  0
 33 34  2  0  0  0
 34 35  1  0  0  0
 35 36  2  0  0  0
 10 11  1  0  0  0
 11 12  2  0  0  0
 12 13  1  0  0  0
 13 14  2  0  0  0
 14  6  1  0  0  0
 13  8  1  0  0  0
  5  1  1  0  0  0
 36 31  1  0  0  0
 29 23  1  0  0  0
 17 18  1  0  0  0
M  END
> <minimizedAffinity>
-4.61667

> <CNNscore>
0.2703241706

> <CNNaffinity>
5.7250776291

> <CNN_VS>
1.5476268530

> <CNNaffinity_variance>
0.1338038594

$$$$
[H]c1c([H])c([H])c(C([H])([H])n2c([H])nc(-c3c([H])c([H])c(F)c([H])c3[H])c2-c2nn3c([H])c(N([H])C(=O)C(C([H])([H])[H])(C([H])([H])[H])C([H])([H])[H])nc3c([H])c2[H])c([H])c1[H]


 36 40  0  0  0  0  0  0  0  0999 V2000
   39.0802  -20.9404   37.1306 C   0  0  0  0  0  0  0  0  0  0  0  0
   39.1254  -21.8086   38.2003 C   0  0  0  0  0  0  0  0  0  0  0  0
   40.3687  -22.3721   38.1698 N   0  0  0  0  0  0  0  0  0  0  0  0
   41.0673  -21.9014   37.1580 C   0  0  0  0  0  0  0  0  0  0  0  0
   40.2545  -21.0090   36.5157 N   0  0  0  0  0  0  0  0  0  0  0  0
   33.5608  -19.0713   36.1164 C   0  0  0  0  0  0  0  0  0  0  0  0
   34.2723  -20.1922   36.4787 C   0  0  0  0  0  0  0  0  0  0  0  0
   35.6027  -19.8791   36.5215 N   0  0  0  0  0  0  0  0  0  0  0  0
   36.6569  -20.6105   36.8128 N   0  0  0  0  0  0  0  0  0  0  0  0
   37.9109  -20.1290   36.8033 C   0  0  0  0  0  0  0  0  0  0  0  0
   38.0464  -18.8027   36.4665 C   0  0  0  0  0  0  0  0  0  0  0  0
   36.9453  -18.0101   36.1550 C   0  0  0  0  0  0  0  0  0  0  0  0
   35.7089  -18.5868   36.1910 C   0  0  0  0  0  0  0  0  0  0  0  0
   34.4833  -18.1025   35.9480 N   0  0  0  0  0  0  0  0  0  0  0  0
   31.4212  -19.9429   35.2584 C   0  0  0  0  0  0  0  0  0  0  0  0
   32.0480  -20.9446   34.7715 O   0  0  0  0  0  0  0  0  0  0  0  0
   32.1664  -18.9608   35.9574 N   0  0  0  0  0  0  0  0  0  0  0  0
   31.6678  -18.1475   36.3550 H   0  0  0  0  0  0  0  0  0  0  0  0
   29.4124  -18.8800   36.0389 C   0  0  0  0  0  0  0  0  0  0  0  0
   29.9723  -19.8863   35.0553 C   0  0  0  0  0  0  0  0  0  0  0  0
   29.6651  -19.4076   33.6686 C   0  0  0  0  0  0  0  0  0  0  0  0
   29.3035  -21.2120   35.3455 C   0  0  0  0  0  0  0  0  0  0  0  0
   38.1414  -22.1524   39.2076 C   0  0  0  0  0  0  0  0  0  0  0  0
   37.3854  -23.2912   39.0635 C   0  0  0  0  0  0  0  0  0  0  0  0
   36.4317  -23.6660   40.0076 C   0  0  0  0  0  0  0  0  0  0  0  0
   36.2224  -22.8873   41.1280 C   0  0  0  0  0  0  0  0  0  0  0  0
   35.2894  -23.2562   42.0490 F   0  0  0  0  0  0  0  0  0  0  0  0
   36.9744  -21.7471   41.2793 C   0  0  0  0  0  0  0  0  0  0  0  0
   37.9205  -21.3892   40.3279 C   0  0  0  0  0  0  0  0  0  0  0  0
   40.6540  -20.2619   35.3340 C   0  0  0  0  0  0  0  0  0  0  0  0
   41.7679  -19.3400   35.6162 C   0  0  0  0  0  0  0  0  0  0  0  0
   41.6857  -18.3416   36.5518 C   0  0  0  0  0  0  0  0  0  0  0  0
   42.7107  -17.4776   36.8305 C   0  0  0  0  0  0  0  0  0  0  0  0
   43.8922  -17.6217   36.1290 C   0  0  0  0  0  0  0  0  0  0  0  0
   44.0027  -18.6207   35.1789 C   0  0  0  0  0  0  0  0  0  0  0  0
   42.9642  -19.4728   34.9172 C   0  0  0  0  0  0  0  0  0  0  0  0
 19 20  1  0  0  0
 20 21  1  0  0  0
 20 22  1  0  0  0
 20 15  1  0  0  0
 15 16  2  0  0  0
 15 17  1  0  0  0
 17  6  1  0  0  0
  6  7  2  0  0  0
  7  8  1  0  0  0
  8  9  1  0  0  0
  9 10  2  0  0  0
 10  1  1  0  0  0
  1  2  2  0  0  0
  2 23  1  0  0  0
 23 24  2  0  0  0
 24 25  1  0  0  0
 25 26  2  0  0  0
 26 27  1  0  0  0
 26 28  1  0  0  0
 28 29  2  0  0  0
  2  3  1  0  0  0
  3  4  2  0  0  0
  4  5  1  0  0  0
  5 30  1  0  0  0
 30 31  1  0  0  0
 31 32  2  0  0  0
 32 33  1  0  0  0
 33 34  2  0  0  0
 34 35  1  0  0  0
 35 36  2  0  0  0
 10 11  1  0  0  0
 11 12  2  0  0  0
 12 13  1  0  0  0
 13 14  2  0  0  0
 14  6  1  0  0  0
 13  8  1  0  0  0
  5  1  1  0  0  0
 36 31  1  0  0  0
 29 23  1  0  0  0
 17 18  1  0  0  0
M  END
> <minimizedAffinity>
-3.97010

> <CNNscore>
0.2586915791

> <CNNaffinity>
5.7440652847

> <CNN_VS>
1.4859412909

> <CNNaffinity_variance>
0.1089404672

$$$$
[H]c1c([H])c([H])c(C([H])([H])n2c([H])nc(-c3c([H])c([H])c(F)c([H])c3[H])c2-c2nn3c([H])c(N([H])C(=O)C(C([H])([H])[H])(C([H])([H])[H])C([H])([H])[H])nc3c([H])c2[H])c([H])c1[H]


 36 40  0  0  0  0  0  0  0  0999 V2000
   40.2348  -21.9494   36.6263 C   0  0  0  0  0  0  0  0  0  0  0  0
   41.5131  -21.6728   37.0619 C   0  0  0  0  0  0  0  0  0  0  0  0
   42.3061  -22.6502   36.5326 N   0  0  0  0  0  0  0  0  0  0  0  0
   41.5912  -23.4894   35.8129 C   0  0  0  0  0  0  0  0  0  0  0  0
   40.3002  -23.0436   35.8778 N   0  0  0  0  0  0  0  0  0  0  0  0
   36.0341  -17.7863   36.7172 C   0  0  0  0  0  0  0  0  0  0  0  0
   37.1520  -18.1778   36.0165 C   0  0  0  0  0  0  0  0  0  0  0  0
   37.6646  -19.3068   36.5930 N   0  0  0  0  0  0  0  0  0  0  0  0
   38.7125  -20.0396   36.2833 N   0  0  0  0  0  0  0  0  0  0  0  0
   39.0739  -21.1341   36.9732 C   0  0  0  0  0  0  0  0  0  0  0  0
   38.2784  -21.4624   38.0457 C   0  0  0  0  0  0  0  0  0  0  0  0
   37.1650  -20.7018   38.3915 C   0  0  0  0  0  0  0  0  0  0  0  0
   36.8755  -19.6058   37.6316 C   0  0  0  0  0  0  0  0  0  0  0  0
   35.8973  -18.6931   37.7057 N   0  0  0  0  0  0  0  0  0  0  0  0
   35.5337  -15.3831   36.9364 C   0  0  0  0  0  0  0  0  0  0  0  0
   36.6052  -15.2432   37.6189 O   0  0  0  0  0  0  0  0  0  0  0  0
   35.2090  -16.6761   36.4555 N   0  0  0  0  0  0  0  0  0  0  0  0
   34.3447  -16.7986   35.9023 H   0  0  0  0  0  0  0  0  0  0  0  0
   35.6233  -13.1266   36.1153 C   0  0  0  0  0  0  0  0  0  0  0  0
   34.7185  -14.1896   36.7026 C   0  0  0  0  0  0  0  0  0  0  0  0
   33.6398  -14.4900   35.7063 C   0  0  0  0  0  0  0  0  0  0  0  0
   34.1474  -13.6286   37.9863 C   0  0  0  0  0  0  0  0  0  0  0  0
   42.0390  -20.6183   37.9059 C   0  0  0  0  0  0  0  0  0  0  0  0
   42.7868  -19.6076   37.3505 C   0  0  0  0  0  0  0  0  0  0  0  0
   43.3086  -18.5697   38.1199 C   0  0  0  0  0  0  0  0  0  0  0  0
   43.0812  -18.5342   39.4810 C   0  0  0  0  0  0  0  0  0  0  0  0
   43.5928  -17.5184   40.2303 F   0  0  0  0  0  0  0  0  0  0  0  0
   42.3346  -19.5412   40.0438 C   0  0  0  0  0  0  0  0  0  0  0  0
   41.8225  -20.5677   39.2613 C   0  0  0  0  0  0  0  0  0  0  0  0
   39.1874  -23.6990   35.2098 C   0  0  0  0  0  0  0  0  0  0  0  0
   38.3428  -24.4495   36.1552 C   0  0  0  0  0  0  0  0  0  0  0  0
   36.9745  -24.4663   36.0755 C   0  0  0  0  0  0  0  0  0  0  0  0
   36.1730  -25.1602   36.9421 C   0  0  0  0  0  0  0  0  0  0  0  0
   36.7788  -25.8826   37.9520 C   0  0  0  0  0  0  0  0  0  0  0  0
   38.1580  -25.8832   38.0561 C   0  0  0  0  0  0  0  0  0  0  0  0
   38.9389  -25.1817   37.1779 C   0  0  0  0  0  0  0  0  0  0  0  0
 19 20  1  0  0  0
 20 21  1  0  0  0
 20 22  1  0  0  0
 20 15  1  0  0  0
 15 16  2  0  0  0
 15 17  1  0  0  0
 17  6  1  0  0  0
  6  7  2  0  0  0
  7  8  1  0  0  0
  8  9  1  0  0  0
  9 10  2  0  0  0
 10  1  1  0  0  0
  1  2  2  0  0  0
  2 23  1  0  0  0
 23 24  2  0  0  0
 24 25  1  0  0  0
 25 26  2  0  0  0
 26 27  1  0  0  0
 26 28  1  0  0  0
 28 29  2  0  0  0
  2  3  1  0  0  0
  3  4  2  0  0  0
  4  5  1  0  0  0
  5 30  1  0  0  0
 30 31  1  0  0  0
 31 32  2  0  0  0
 32 33  1  0  0  0
 33 34  2  0  0  0
 34 35  1  0  0  0
 35 36  2  0  0  0
 10 11  1  0  0  0
 11 12  2  0  0  0
 12 13  1  0  0  0
 13 14  2  0  0  0
 14  6  1  0  0  0
 13  8  1  0  0  0
  5  1  1  0  0  0
 36 31  1  0  0  0
 29 23  1  0  0  0
 17 18  1  0  0  0
M  END
> <minimizedAffinity>
-5.24315

> <CNNscore>
0.2306318432

> <CNNaffinity>
6.0050606728

> <CNN_VS>
1.3849582672

> <CNNaffinity_variance>
0.2717050314

$$$$
[H]c1c([H])c([H])c(C([H])([H])n2c([H])nc(-c3c([H])c([H])c(F)c([H])c3[H])c2-c2nn3c([H])c(N([H])C(=O)C(C([H])([H])[H])(C([H])([H])[H])C([H])([H])[H])nc3c([H])c2[H])c([H])c1[H]


 36 40  0  0  0  0  0  0  0  0999 V2000
   38.0905  -20.3274   36.8502 C   0  0  0  0  0  0  0  0  0  0  0  0
   39.4299  -20.5287   37.1060 C   0  0  0  0  0  0  0  0  0  0  0  0
   40.1017  -19.7737   36.1878 N   0  0  0  0  0  0  0  0  0  0  0  0
   39.2577  -19.1371   35.4031 C   0  0  0  0  0  0  0  0  0  0  0  0
   38.0055  -19.4893   35.8243 N   0  0  0  0  0  0  0  0  0  0  0  0
   33.3804  -23.5139   38.4770 C   0  0  0  0  0  0  0  0  0  0  0  0
   34.1330  -23.1849   37.3727 C   0  0  0  0  0  0  0  0  0  0  0  0
   35.1416  -22.3454   37.7569 N   0  0  0  0  0  0  0  0  0  0  0  0
   36.1025  -21.7708   37.0657 N   0  0  0  0  0  0  0  0  0  0  0  0
   37.0218  -20.9615   37.6174 C   0  0  0  0  0  0  0  0  0  0  0  0
   36.9103  -20.7553   38.9723 C   0  0  0  0  0  0  0  0  0  0  0  0
   35.9021  -21.3529   39.7234 C   0  0  0  0  0  0  0  0  0  0  0  0
   35.0124  -22.1602   39.0759 C   0  0  0  0  0  0  0  0  0  0  0  0
   33.9553  -22.8616   39.5075 N   0  0  0  0  0  0  0  0  0  0  0  0
   30.9369  -23.8259   38.5535 C   0  0  0  0  0  0  0  0  0  0  0  0
   30.7949  -22.5558   38.5410 O   0  0  0  0  0  0  0  0  0  0  0  0
   32.2516  -24.3540   38.5201 N   0  0  0  0  0  0  0  0  0  0  0  0
   32.3760  -25.3800   38.5295 H   0  0  0  0  0  0  0  0  0  0  0  0
   29.6278  -25.3976   37.2924 C   0  0  0  0  0  0  0  0  0  0  0  0
   29.7230  -24.6430   38.6020 C   0  0  0  0  0  0  0  0  0  0  0  0
   29.8199  -25.6436   39.7137 C   0  0  0  0  0  0  0  0  0  0  0  0
   28.4724  -23.8000   38.7220 C   0  0  0  0  0  0  0  0  0  0  0  0
   40.1135  -21.3420   38.0922 C   0  0  0  0  0  0  0  0  0  0  0  0
   40.2902  -22.6860   37.8654 C   0  0  0  0  0  0  0  0  0  0  0  0
   40.9456  -23.5070   38.7808 C   0  0  0  0  0  0  0  0  0  0  0  0
   41.4402  -22.9781   39.9559 C   0  0  0  0  0  0  0  0  0  0  0  0
   42.0801  -23.7832   40.8487 F   0  0  0  0  0  0  0  0  0  0  0  0
   41.2674  -21.6350   40.1900 C   0  0  0  0  0  0  0  0  0  0  0  0
   40.6115  -20.8320   39.2662 C   0  0  0  0  0  0  0  0  0  0  0  0
   36.7818  -18.9962   35.2130 C   0  0  0  0  0  0  0  0  0  0  0  0
   36.3295  -17.7354   35.8262 C   0  0  0  0  0  0  0  0  0  0  0  0
   35.1503  -17.1257   35.4850 C   0  0  0  0  0  0  0  0  0  0  0  0
   34.7114  -15.9563   36.0459 C   0  0  0  0  0  0  0  0  0  0  0  0
   35.5023  -15.3594   37.0088 C   0  0  0  0  0  0  0  0  0  0  0  0
   36.6975  -15.9528   37.3723 C   0  0  0  0  0  0  0  0  0  0  0  0
   37.1158  -17.1224   36.7975 C   0  0  0  0  0  0  0  0  0  0  0  0
 19 20  1  0  0  0
 20 21  1  0  0  0
 20 22  1  0  0  0
 20 15  1  0  0  0
 15 16  2  0  0  0
 15 17  1  0  0  0
 17  6  1  0  0  0
  6  7  2  0  0  0
  7  8  1  0  0  0
  8  9  1  0  0  0
  9 10  2  0  0  0
 10  1  1  0  0  0
  1  2  2  0  0  0
  2 23  1  0  0  0
 23 24  2  0  0  0
 24 25  1  0  0  0
 25 26  2  0  0  0
 26 27  1  0  0  0
 26 28  1  0  0  0
 28 29  2  0  0  0
  2  3  1  0  0  0
  3  4  2  0  0  0
  4  5  1  0  0  0
  5 30  1  0  0  0
 30 31  1  0  0  0
 31 32  2  0  0  0
 32 33  1  0  0  0
 33 34  2  0  0  0
 34 35  1  0  0  0
 35 36  2  0  0  0
 10 11  1  0  0  0
 11 12  2  0  0  0
 12 13  1  0  0  0
 13 14  2  0  0  0
 14  6  1  0  0  0
 13  8  1  0  0  0
  5  1  1  0  0  0
 36 31  1  0  0  0
 29 23  1  0  0  0
 17 18  1  0  0  0
M  END
> <minimizedAffinity>
-4.56600

> <CNNscore>
0.2216388136

> <CNNaffinity>
5.8154935837

> <CNN_VS>
1.2889391184

> <CNNaffinity_variance>
0.0182705093

$$$$
[H]c1c([H])c([H])c(C([H])([H])n2c([H])nc(-c3c([H])c([H])c(F)c([H])c3[H])c2-c2nn3c([H])c(N([H])C(=O)C(C([H])([H])[H])(C([H])([H])[H])C([H])([H])[H])nc3c([H])c2[H])c([H])c1[H]


 36 40  0  0  0  0  0  0  0  0999 V2000
   38.1920  -20.2687   36.3779 C   0  0  0  0  0  0  0  0  0  0  0  0
   37.9689  -19.0457   35.7825 C   0  0  0  0  0  0  0  0  0  0  0  0
   39.0519  -18.8183   34.9826 N   0  0  0  0  0  0  0  0  0  0  0  0
   39.9043  -19.8187   35.0594 C   0  0  0  0  0  0  0  0  0  0  0  0
   39.3588  -20.7184   35.9326 N   0  0  0  0  0  0  0  0  0  0  0  0
   33.7882  -23.3897   38.7970 C   0  0  0  0  0  0  0  0  0  0  0  0
   34.3475  -23.0753   37.5795 C   0  0  0  0  0  0  0  0  0  0  0  0
   35.4158  -22.2462   37.7825 N   0  0  0  0  0  0  0  0  0  0  0  0
   36.2527  -21.6867   36.9353 N   0  0  0  0  0  0  0  0  0  0  0  0
   37.2609  -20.8861   37.3186 C   0  0  0  0  0  0  0  0  0  0  0  0
   37.3817  -20.6720   38.6715 C   0  0  0  0  0  0  0  0  0  0  0  0
   36.5079  -21.2535   39.5858 C   0  0  0  0  0  0  0  0  0  0  0  0
   35.5128  -22.0531   39.1030 C   0  0  0  0  0  0  0  0  0  0  0  0
   34.5359  -22.7395   39.7113 N   0  0  0  0  0  0  0  0  0  0  0  0
   31.3522  -23.7046   38.9987 C   0  0  0  0  0  0  0  0  0  0  0  0
   31.1909  -22.4637   38.7390 O   0  0  0  0  0  0  0  0  0  0  0  0
   32.6736  -24.2158   39.0355 N   0  0  0  0  0  0  0  0  0  0  0  0
   32.8135  -25.2183   39.2443 H   0  0  0  0  0  0  0  0  0  0  0  0
   30.5952  -25.8135   39.8669 C   0  0  0  0  0  0  0  0  0  0  0  0
   30.1522  -24.5080   39.2402 C   0  0  0  0  0  0  0  0  0  0  0  0
   29.2487  -23.8059   40.2083 C   0  0  0  0  0  0  0  0  0  0  0  0
   29.4291  -24.8530   37.9568 C   0  0  0  0  0  0  0  0  0  0  0  0
   36.8760  -18.1004   35.8972 C   0  0  0  0  0  0  0  0  0  0  0  0
   35.7471  -18.2649   35.1307 C   0  0  0  0  0  0  0  0  0  0  0  0
   34.6689  -17.3859   35.2100 C   0  0  0  0  0  0  0  0  0  0  0  0
   34.7127  -16.3119   36.0761 C   0  0  0  0  0  0  0  0  0  0  0  0
   33.6572  -15.4545   36.1513 F   0  0  0  0  0  0  0  0  0  0  0  0
   35.8381  -16.1406   36.8460 C   0  0  0  0  0  0  0  0  0  0  0  0
   36.9032  -17.0268   36.7535 C   0  0  0  0  0  0  0  0  0  0  0  0
   39.9937  -21.9751   36.2955 C   0  0  0  0  0  0  0  0  0  0  0  0
   41.4372  -21.9674   36.0014 C   0  0  0  0  0  0  0  0  0  0  0  0
   41.9683  -22.5439   34.8768 C   0  0  0  0  0  0  0  0  0  0  0  0
   43.3059  -22.5440   34.5844 C   0  0  0  0  0  0  0  0  0  0  0  0
   44.1663  -21.9287   35.4731 C   0  0  0  0  0  0  0  0  0  0  0  0
   43.6577  -21.3390   36.6162 C   0  0  0  0  0  0  0  0  0  0  0  0
   42.3163  -21.3515   36.8875 C   0  0  0  0  0  0  0  0  0  0  0  0
 19 20  1  0  0  0
 20 21  1  0  0  0
 20 22  1  0  0  0
 20 15  1  0  0  0
 15 16  2  0  0  0
 15 17  1  0  0  0
 17  6  1  0  0  0
  6  7  2  0  0  0
  7  8  1  0  0  0
  8  9  1  0  0  0
  9 10  2  0  0  0
 10  1  1  0  0  0
  1  2  2  0  0  0
  2 23  1  0  0  0
 23 24  2  0  0  0
 24 25  1  0  0  0
 25 26  2  0  0  0
 26 27  1  0  0  0
 26 28  1  0  0  0
 28 29  2  0  0  0
  2  3  1  0  0  0
  3  4  2  0  0  0
  4  5  1  0  0  0
  5 30  1  0  0  0
 30 31  1  0  0  0
 31 32  2  0  0  0
 32 33  1  0  0  0
 33 34  2  0  0  0
 34 35  1  0  0  0
 35 36  2  0  0  0
 10 11  1  0  0  0
 11 12  2  0  0  0
 12 13  1  0  0  0
 13 14  2  0  0  0
 14  6  1  0  0  0
 13  8  1  0  0  0
  5  1  1  0  0  0
 36 31  1  0  0  0
 29 23  1  0  0  0
 17 18  1  0  0  0
M  END
> <minimizedAffinity>
-4.57165

> <CNNscore>
0.2090353966

> <CNNaffinity>
5.6643557549

> <CNN_VS>
1.1840507984

> <CNNaffinity_variance>
0.0269529819

$$$$
[H]c1c([H])c([H])c(C([H])([H])n2c([H])nc(-c3c([H])c([H])c(F)c([H])c3[H])c2-c2nn3c([H])c(N([H])C(=O)C(C([H])([H])[H])(C([H])([H])[H])C([H])([H])[H])nc3c([H])c2[H])c([H])c1[H]


 36 40  0  0  0  0  0  0  0  0999 V2000
   34.3445  -18.7156   35.7150 C   0  0  0  0  0  0  0  0  0  0  0  0
   34.3592  -17.3422   35.5983 C   0  0  0  0  0  0  0  0  0  0  0  0
   33.3836  -17.0353   34.6936 N   0  0  0  0  0  0  0  0  0  0  0  0
   32.7890  -18.1282   34.2630 C   0  0  0  0  0  0  0  0  0  0  0  0
   33.3958  -19.1712   34.9061 N   0  0  0  0  0  0  0  0  0  0  0  0
   38.9212  -21.7524   37.9100 C   0  0  0  0  0  0  0  0  0  0  0  0
   38.4741  -21.1596   36.7512 C   0  0  0  0  0  0  0  0  0  0  0  0
   37.2467  -20.6030   36.9822 N   0  0  0  0  0  0  0  0  0  0  0  0
   36.4330  -19.9382   36.1903 N   0  0  0  0  0  0  0  0  0  0  0  0
   35.2455  -19.4569   36.5935 C   0  0  0  0  0  0  0  0  0  0  0  0
   34.9100  -19.6967   37.9053 C   0  0  0  0  0  0  0  0  0  0  0  0
   35.7553  -20.3974   38.7609 C   0  0  0  0  0  0  0  0  0  0  0  0
   36.9427  -20.8488   38.2619 C   0  0  0  0  0  0  0  0  0  0  0  0
   37.9479  -21.5386   38.8183 N   0  0  0  0  0  0  0  0  0  0  0  0
   40.2551  -23.8238   37.8484 C   0  0  0  0  0  0  0  0  0  0  0  0
   39.2234  -24.4513   37.4296 O   0  0  0  0  0  0  0  0  0  0  0  0
   40.1369  -22.4349   38.1046 N   0  0  0  0  0  0  0  0  0  0  0  0
   40.9662  -21.9192   38.4431 H   0  0  0  0  0  0  0  0  0  0  0  0
   41.4625  -25.7393   37.0440 C   0  0  0  0  0  0  0  0  0  0  0  0
   41.4874  -24.5926   38.0329 C   0  0  0  0  0  0  0  0  0  0  0  0
   42.6790  -23.7362   37.7279 C   0  0  0  0  0  0  0  0  0  0  0  0
   41.5795  -25.1992   39.4158 C   0  0  0  0  0  0  0  0  0  0  0  0
   35.1807  -16.3278   36.2285 C   0  0  0  0  0  0  0  0  0  0  0  0
   34.6975  -15.0491   36.3715 C   0  0  0  0  0  0  0  0  0  0  0  0
   35.4475  -14.0420   36.9754 C   0  0  0  0  0  0  0  0  0  0  0  0
   36.7146  -14.3124   37.4515 C   0  0  0  0  0  0  0  0  0  0  0  0
   37.4453  -13.3258   38.0412 F   0  0  0  0  0  0  0  0  0  0  0  0
   37.2049  -15.5886   37.3123 C   0  0  0  0  0  0  0  0  0  0  0  0
   36.4430  -16.5798   36.7076 C   0  0  0  0  0  0  0  0  0  0  0  0
   33.0275  -20.5637   34.7075 C   0  0  0  0  0  0  0  0  0  0  0  0
   31.8324  -20.9331   35.4856 C   0  0  0  0  0  0  0  0  0  0  0  0
   30.5691  -20.5264   35.1429 C   0  0  0  0  0  0  0  0  0  0  0  0
   29.4463  -20.8622   35.8510 C   0  0  0  0  0  0  0  0  0  0  0  0
   29.5971  -21.6548   36.9726 C   0  0  0  0  0  0  0  0  0  0  0  0
   30.8606  -22.0795   37.3416 C   0  0  0  0  0  0  0  0  0  0  0  0
   31.9687  -21.7310   36.6180 C   0  0  0  0  0  0  0  0  0  0  0  0
 19 20  1  0  0  0
 20 21  1  0  0  0
 20 22  1  0  0  0
 20 15  1  0  0  0
 15 16  2  0  0  0
 15 17  1  0  0  0
 17  6  1  0  0  0
  6  7  2  0  0  0
  7  8  1  0  0  0
  8  9  1  0  0  0
  9 10  2  0  0  0
 10  1  1  0  0  0
  1  2  2  0  0  0
  2 23  1  0  0  0
 23 24  2  0  0  0
 24 25  1  0  0  0
 25 26  2  0  0  0
 26 27  1  0  0  0
 26 28  1  0  0  0
 28 29  2  0  0  0
  2  3  1  0  0  0
  3  4  2  0  0  0
  4  5  1  0  0  0
  5 30  1  0  0  0
 30 31  1  0  0  0
 31 32  2  0  0  0
 32 33  1  0  0  0
 33 34  2  0  0  0
 34 35  1  0  0  0
 35 36  2  0  0  0
 10 11  1  0  0  0
 11 12  2  0  0  0
 12 13  1  0  0  0
 13 14  2  0  0  0
 14  6  1  0  0  0
 13  8  1  0  0  0
  5  1  1  0  0  0
 36 31  1  0  0  0
 29 23  1  0  0  0
 17 18  1  0  0  0
M  END
> <minimizedAffinity>
-6.56131

> <CNNscore>
0.1943014264

> <CNNaffinity>
5.7242798805

> <CNN_VS>
1.1122357845

> <CNNaffinity_variance>
0.4895716608

$$$$
[H]c1c([H])c([H])c(C([H])([H])n2c([H])nc(-c3c([H])c([H])c(F)c([H])c3[H])c2-c2nn3c([H])c(N([H])C(=O)C(C([H])([H])[H])(C([H])([H])[H])C([H])([H])[H])nc3c([H])c2[H])c([H])c1[H]


 36 40  0  0  0  0  0  0  0  0999 V2000
   35.0185  -19.6520   36.4240 C   0  0  0  0  0  0  0  0  0  0  0  0
   33.9430  -20.4035   36.8466 C   0  0  0  0  0  0  0  0  0  0  0  0
   32.8317  -19.7401   36.4117 N   0  0  0  0  0  0  0  0  0  0  0  0
   33.1686  -18.6467   35.7603 C   0  0  0  0  0  0  0  0  0  0  0  0
   34.5351  -18.6007   35.7736 N   0  0  0  0  0  0  0  0  0  0  0  0
   40.0721  -21.2802   39.0309 C   0  0  0  0  0  0  0  0  0  0  0  0
   38.7491  -21.0199   39.3069 C   0  0  0  0  0  0  0  0  0  0  0  0
   38.1141  -20.6706   38.1474 N   0  0  0  0  0  0  0  0  0  0  0  0
   36.8636  -20.3372   37.9100 N   0  0  0  0  0  0  0  0  0  0  0  0
   36.4076  -20.0179   36.6875 C   0  0  0  0  0  0  0  0  0  0  0  0
   37.3307  -20.0560   35.6691 C   0  0  0  0  0  0  0  0  0  0  0  0
   38.6586  -20.4059   35.8972 C   0  0  0  0  0  0  0  0  0  0  0  0
   39.0305  -20.7148   37.1734 C   0  0  0  0  0  0  0  0  0  0  0  0
   40.2053  -21.0807   37.7041 N   0  0  0  0  0  0  0  0  0  0  0  0
   41.3659  -23.0395   40.1731 C   0  0  0  0  0  0  0  0  0  0  0  0
   40.6986  -23.9193   39.5298 O   0  0  0  0  0  0  0  0  0  0  0  0
   41.0718  -21.6726   39.9409 N   0  0  0  0  0  0  0  0  0  0  0  0
   41.6069  -20.9542   40.4564 H   0  0  0  0  0  0  0  0  0  0  0  0
   41.7823  -24.6414   41.9151 C   0  0  0  0  0  0  0  0  0  0  0  0
   42.3892  -23.5139   41.1067 C   0  0  0  0  0  0  0  0  0  0  0  0
   43.5634  -24.0581   40.3506 C   0  0  0  0  0  0  0  0  0  0  0  0
   42.8096  -22.4400   42.0860 C   0  0  0  0  0  0  0  0  0  0  0  0
   33.8645  -21.6384   37.6015 C   0  0  0  0  0  0  0  0  0  0  0  0
   34.0443  -22.8421   36.9629 C   0  0  0  0  0  0  0  0  0  0  0  0
   33.9836  -24.0546   37.6468 C   0  0  0  0  0  0  0  0  0  0  0  0
   33.7374  -24.0726   39.0049 C   0  0  0  0  0  0  0  0  0  0  0  0
   33.6786  -25.2593   39.6705 F   0  0  0  0  0  0  0  0  0  0  0  0
   33.5566  -22.8731   39.6507 C   0  0  0  0  0  0  0  0  0  0  0  0
   33.6204  -21.6743   38.9527 C   0  0  0  0  0  0  0  0  0  0  0  0
   35.3111  -17.5387   35.1537 C   0  0  0  0  0  0  0  0  0  0  0  0
   35.5013  -16.3942   36.0616 C   0  0  0  0  0  0  0  0  0  0  0  0
   36.5742  -16.2891   36.9081 C   0  0  0  0  0  0  0  0  0  0  0  0
   36.7701  -15.2321   37.7562 C   0  0  0  0  0  0  0  0  0  0  0  0
   35.8334  -14.2165   37.7574 C   0  0  0  0  0  0  0  0  0  0  0  0
   34.7407  -14.2968   36.9134 C   0  0  0  0  0  0  0  0  0  0  0  0
   34.5658  -15.3636   36.0740 C   0  0  0  0  0  0  0  0  0  0  0  0
 19 20  1  0  0  0
 20 21  1  0  0  0
 20 22  1  0  0  0
 20 15  1  0  0  0
 15 16  2  0  0  0
 15 17  1  0  0  0
 17  6  1  0  0  0
  6  7  2  0  0  0
  7  8  1  0  0  0
  8  9  1  0  0  0
  9 10  2  0  0  0
 10  1  1  0  0  0
  1  2  2  0  0  0
  2 23  1  0  0  0
 23 24  2  0  0  0
 24 25  1  0  0  0
 25 26  2  0  0  0
 26 27  1  0  0  0
 26 28  1  0  0  0
 28 29  2  0  0  0
  2  3  1  0  0  0
  3  4  2  0  0  0
  4  5  1  0  0  0
  5 30  1  0  0  0
 30 31  1  0  0  0
 31 32  2  0  0  0
 32 33  1  0  0  0
 33 34  2  0  0  0
 34 35  1  0  0  0
 35 36  2  0  0  0
 10 11  1  0  0  0
 11 12  2  0  0  0
 12 13  1  0  0  0
 13 14  2  0  0  0
 14  6  1  0  0  0
 13  8  1  0  0  0
  5  1  1  0  0  0
 36 31  1  0  0  0
 29 23  1  0  0  0
 17 18  1  0  0  0
M  END
> <minimizedAffinity>
-5.39895

> <CNNscore>
0.1708068550

> <CNNaffinity>
5.6597924232

> <CNN_VS>
0.9667313695

> <CNNaffinity_variance>
0.0818129927

$$$$
[H]c1c([H])c([H])c(C([H])([H])n2c([H])nc(-c3c([H])c([H])c(F)c([H])c3[H])c2-c2nn3c([H])c(N([H])C(=O)C(C([H])([H])[H])(C([H])([H])[H])C([H])([H])[H])nc3c([H])c2[H])c([H])c1[H]


 36 40  0  0  0  0  0  0  0  0999 V2000
   36.5723  -19.3362   35.9813 C   0  0  0  0  0  0  0  0  0  0  0  0
   37.8486  -19.7628   35.6829 C   0  0  0  0  0  0  0  0  0  0  0  0
   38.2826  -18.9575   34.6693 N   0  0  0  0  0  0  0  0  0  0  0  0
   37.3556  -18.0816   34.3425 C   0  0  0  0  0  0  0  0  0  0  0  0
   36.2924  -18.3262   35.1667 N   0  0  0  0  0  0  0  0  0  0  0  0
   32.7546  -22.7524   38.9378 C   0  0  0  0  0  0  0  0  0  0  0  0
   33.2805  -22.5572   37.6811 C   0  0  0  0  0  0  0  0  0  0  0  0
   34.1708  -21.5205   37.7284 N   0  0  0  0  0  0  0  0  0  0  0  0
   34.9136  -20.9718   36.7912 N   0  0  0  0  0  0  0  0  0  0  0  0
   35.7451  -19.9422   37.0212 C   0  0  0  0  0  0  0  0  0  0  0  0
   35.7858  -19.4755   38.3141 C   0  0  0  0  0  0  0  0  0  0  0  0
   35.0091  -20.0408   39.3214 C   0  0  0  0  0  0  0  0  0  0  0  0
   34.1931  -21.0843   38.9932 C   0  0  0  0  0  0  0  0  0  0  0  0
   33.3430  -21.8238   39.7186 N   0  0  0  0  0  0  0  0  0  0  0  0
   30.4175  -23.5112   39.1269 C   0  0  0  0  0  0  0  0  0  0  0  0
   30.0402  -22.4189   38.5811 O   0  0  0  0  0  0  0  0  0  0  0  0
   31.8056  -23.7175   39.3247 N   0  0  0  0  0  0  0  0  0  0  0  0
   32.1199  -24.5982   39.7650 H   0  0  0  0  0  0  0  0  0  0  0  0
   28.2656  -23.6971   40.1800 C   0  0  0  0  0  0  0  0  0  0  0  0
   29.3804  -24.4717   39.5086 C   0  0  0  0  0  0  0  0  0  0  0  0
   28.8201  -25.1368   38.2879 C   0  0  0  0  0  0  0  0  0  0  0  0
   29.8841  -25.4864   40.5113 C   0  0  0  0  0  0  0  0  0  0  0  0
   38.6663  -20.8243   36.2358 C   0  0  0  0  0  0  0  0  0  0  0  0
   38.8082  -22.0060   35.5483 C   0  0  0  0  0  0  0  0  0  0  0  0
   39.5878  -23.0526   36.0364 C   0  0  0  0  0  0  0  0  0  0  0  0
   40.2462  -22.9222   37.2426 C   0  0  0  0  0  0  0  0  0  0  0  0
   41.0073  -23.9471   37.7171 F   0  0  0  0  0  0  0  0  0  0  0  0
   40.1092  -21.7437   37.9360 C   0  0  0  0  0  0  0  0  0  0  0  0
   39.3279  -20.7112   37.4341 C   0  0  0  0  0  0  0  0  0  0  0  0
   35.0521  -17.5684   35.1276 C   0  0  0  0  0  0  0  0  0  0  0  0
   33.8886  -18.4306   34.8572 C   0  0  0  0  0  0  0  0  0  0  0  0
   32.7086  -18.3219   35.5462 C   0  0  0  0  0  0  0  0  0  0  0  0
   31.6156  -19.1112   35.3071 C   0  0  0  0  0  0  0  0  0  0  0  0
   31.7092  -20.0695   34.3164 C   0  0  0  0  0  0  0  0  0  0  0  0
   32.8882  -20.2013   33.6054 C   0  0  0  0  0  0  0  0  0  0  0  0
   33.9681  -19.4007   33.8622 C   0  0  0  0  0  0  0  0  0  0  0  0
 19 20  1  0  0  0
 20 21  1  0  0  0
 20 22  1  0  0  0
 20 15  1  0  0  0
 15 16  2  0  0  0
 15 17  1  0  0  0
 17  6  1  0  0  0
  6  7  2  0  0  0
  7  8  1  0  0  0
  8  9  1  0  0  0
  9 10  2  0  0  0
 10  1  1  0  0  0
  1  2  2  0  0  0
  2 23  1  0  0  0
 23 24  2  0  0  0
 24 25  1  0  0  0
 25 26  2  0  0  0
 26 27  1  0  0  0
 26 28  1  0  0  0
 28 29  2  0  0  0
  2  3  1  0  0  0
  3  4  2  0  0  0
  4  5  1  0  0  0
  5 30  1  0  0  0
 30 31  1  0  0  0
 31 32  2  0  0  0
 32 33  1  0  0  0
 33 34  2  0  0  0
 34 35  1  0  0  0
 35 36  2  0  0  0
 10 11  1  0  0  0
 11 12  2  0  0  0
 12 13  1  0  0  0
 13 14  2  0  0  0
 14  6  1  0  0  0
 13  8  1  0  0  0
  5  1  1  0  0  0
 36 31  1  0  0  0
 29 23  1  0  0  0
 17 18  1  0  0  0
M  END
> <minimizedAffinity>
-5.26031

> <CNNscore>
0.1687942743

> <CNNaffinity>
5.6078834534

> <CNN_VS>
0.9465786219

> <CNNaffinity_variance>
0.1520041972

$$$$
[H]c1c([H])c([H])c(C([H])([H])n2c([H])nc(-c3c([H])c([H])c(F)c([H])c3[H])c2-c2nn3c([H])c(N([H])C(=O)C(C([H])([H])[H])(C([H])([H])[H])C([H])([H])[H])nc3c([H])c2[H])c([H])c1[H]


 36 40  0  0  0  0  0  0  0  0999 V2000
   37.6433  -20.0508   36.9430 C   0  0  0  0  0  0  0  0  0  0  0  0
   36.7963  -21.1147   37.1681 C   0  0  0  0  0  0  0  0  0  0  0  0
   37.6014  -22.1695   37.4900 N   0  0  0  0  0  0  0  0  0  0  0  0
   38.8677  -21.8096   37.4724 C   0  0  0  0  0  0  0  0  0  0  0  0
   38.8833  -20.4860   37.1298 N   0  0  0  0  0  0  0  0  0  0  0  0
   35.4911  -14.5424   37.0524 C   0  0  0  0  0  0  0  0  0  0  0  0
   35.7834  -15.6046   37.8772 C   0  0  0  0  0  0  0  0  0  0  0  0
   36.2886  -16.6268   37.1226 N   0  0  0  0  0  0  0  0  0  0  0  0
   36.7051  -17.8289   37.4583 N   0  0  0  0  0  0  0  0  0  0  0  0
   37.1774  -18.7181   36.5691 C   0  0  0  0  0  0  0  0  0  0  0  0
   37.2065  -18.3044   35.2580 C   0  0  0  0  0  0  0  0  0  0  0  0
   36.7712  -17.0374   34.8801 C   0  0  0  0  0  0  0  0  0  0  0  0
   36.3071  -16.2015   35.8540 C   0  0  0  0  0  0  0  0  0  0  0  0
   35.8285  -14.9506   35.8124 N   0  0  0  0  0  0  0  0  0  0  0  0
   33.5751  -13.0090   37.2793 C   0  0  0  0  0  0  0  0  0  0  0  0
   32.8167  -13.9183   36.7981 O   0  0  0  0  0  0  0  0  0  0  0  0
   34.9555  -13.2952   37.4255 N   0  0  0  0  0  0  0  0  0  0  0  0
   35.5762  -12.5659   37.8142 H   0  0  0  0  0  0  0  0  0  0  0  0
   32.7469  -11.7402   39.1443 C   0  0  0  0  0  0  0  0  0  0  0  0
   32.9561  -11.7334   37.6444 C   0  0  0  0  0  0  0  0  0  0  0  0
   33.8749  -10.5991   37.3043 C   0  0  0  0  0  0  0  0  0  0  0  0
   31.5960  -11.5561   37.0060 C   0  0  0  0  0  0  0  0  0  0  0  0
   35.3529  -21.2310   37.1031 C   0  0  0  0  0  0  0  0  0  0  0  0
   34.5857  -20.1093   36.8971 C   0  0  0  0  0  0  0  0  0  0  0  0
   33.1959  -20.1718   36.8216 C   0  0  0  0  0  0  0  0  0  0  0  0
   32.5484  -21.3836   36.9544 C   0  0  0  0  0  0  0  0  0  0  0  0
   31.1897  -21.4413   36.8803 F   0  0  0  0  0  0  0  0  0  0  0  0
   33.3085  -22.5098   37.1606 C   0  0  0  0  0  0  0  0  0  0  0  0
   34.6929  -22.4284   37.2332 C   0  0  0  0  0  0  0  0  0  0  0  0
   40.1009  -19.7021   36.9998 C   0  0  0  0  0  0  0  0  0  0  0  0
   41.1323  -20.4121   36.2237 C   0  0  0  0  0  0  0  0  0  0  0  0
   41.0399  -20.6059   34.8699 C   0  0  0  0  0  0  0  0  0  0  0  0
   41.9893  -21.2598   34.1311 C   0  0  0  0  0  0  0  0  0  0  0  0
   43.1011  -21.7506   34.7882 C   0  0  0  0  0  0  0  0  0  0  0  0
   43.2202  -21.5694   36.1542 C   0  0  0  0  0  0  0  0  0  0  0  0
   42.2579  -20.9123   36.8721 C   0  0  0  0  0  0  0  0  0  0  0  0
 19 20  1  0  0  0
 20 21  1  0  0  0
 20 22  1  0  0  0
 20 15  1  0  0  0
 15 16  2  0  0  0
 15 17  1  0  0  0
 17  6  1  0  0  0
  6  7  2  0  0  0
  7  8  1  0  0  0
  8  9  1  0  0  0
  9 10  2  0  0  0
 10  1  1  0  0  0
  1  2  2  0  0  0
  2 23  1  0  0  0
 23 24  2  0  0  0
 24 25  1  0  0  0
 25 26  2  0  0  0
 26 27  1  0  0  0
 26 28  1  0  0  0
 28 29  2  0  0  0
  2  3  1  0  0  0
  3  4  2  0  0  0
  4  5  1  0  0  0
  5 30  1  0  0  0
 30 31  1  0  0  0
 31 32  2  0  0  0
 32 33  1  0  0  0
 33 34  2  0  0  0
 34 35  1  0  0  0
 35 36  2  0  0  0
 10 11  1  0  0  0
 11 12  2  0  0  0
 12 13  1  0  0  0
 13 14  2  0  0  0
 14  6  1  0  0  0
 13  8  1  0  0  0
  5  1  1  0  0  0
 36 31  1  0  0  0
 29 23  1  0  0  0
 17 18  1  0  0  0
M  END
> <minimizedAffinity>
-5.44672

> <CNNscore>
0.1418297887

> <CNNaffinity>
5.7772970200

> <CNN_VS>
0.8193928003

> <CNNaffinity_variance>
0.2768239379

$$$$
[H]c1nc(N([H])[H])c(OC([H])([H])C([H])([H])[H])c(N2C([H])([H])C([H])([H])N(C([H])(c3c([H])c([H])c(C(F)(F)F)c([H])c3[H])C([H])([H])N([H])[H])C([H])([H])C2([H])[H])n1


 33 35  0  0  0  0  0  0  0  0999 V2000
   36.6836  -17.4923   35.4349 N   0  0  0  0  0  0  0  0  0  0  0  0
   36.5608  -17.9678   34.0751 C   0  0  0  0  0  0  0  0  0  0  0  0
   37.9813  -18.2885   33.6768 C   0  0  0  0  0  0  0  0  0  0  0  0
   38.3150  -19.6430   34.1894 N   0  0  0  0  0  0  0  0  0  0  0  0
   37.7504  -19.6893   35.5413 C   0  0  0  0  0  0  0  0  0  0  0  0
   37.6463  -18.3614   36.2043 C   0  0  0  0  0  0  0  0  0  0  0  0
   34.8244  -15.9132   36.0032 C   0  0  0  0  0  0  0  0  0  0  0  0
   34.4228  -14.7613   36.7140 C   0  0  0  0  0  0  0  0  0  0  0  0
   33.1145  -14.2433   36.5728 N   0  0  0  0  0  0  0  0  0  0  0  0
   35.2765  -14.1544   37.5230 N   0  0  0  0  0  0  0  0  0  0  0  0
   36.5210  -14.6608   37.6493 C   0  0  0  0  0  0  0  0  0  0  0  0
   36.9028  -15.7460   36.9771 N   0  0  0  0  0  0  0  0  0  0  0  0
   36.0655  -16.4351   36.1080 C   0  0  0  0  0  0  0  0  0  0  0  0
   32.5919  -13.9490   37.4408 H   0  0  0  0  0  0  0  0  0  0  0  0
   32.6383  -14.1295   35.6370 H   0  0  0  0  0  0  0  0  0  0  0  0
   33.8361  -16.4553   35.1964 O   0  0  0  0  0  0  0  0  0  0  0  0
   32.8454  -18.4327   34.2823 C   0  0  0  0  0  0  0  0  0  0  0  0
   33.1949  -17.6743   35.5431 C   0  0  0  0  0  0  0  0  0  0  0  0
   39.7571  -19.7396   34.3002 C   0  0  0  0  0  0  0  0  0  0  0  0
   40.1937  -21.0504   34.8095 C   0  0  0  0  0  0  0  0  0  0  0  0
   39.8262  -22.1907   34.1203 C   0  0  0  0  0  0  0  0  0  0  0  0
   40.1123  -23.4573   34.6101 C   0  0  0  0  0  0  0  0  0  0  0  0
   40.7718  -23.6025   35.8104 C   0  0  0  0  0  0  0  0  0  0  0  0
   41.1566  -22.4913   36.5210 C   0  0  0  0  0  0  0  0  0  0  0  0
   40.8512  -21.2347   35.9903 C   0  0  0  0  0  0  0  0  0  0  0  0
   41.0238  -24.9563   36.3618 C   0  0  0  0  0  0  0  0  0  0  0  0
   41.6873  -24.7680   37.5958 F   0  0  0  0  0  0  0  0  0  0  0  0
   41.8574  -25.7187   35.5810 F   0  0  0  0  0  0  0  0  0  0  0  0
   39.8534  -25.6049   36.6770 F   0  0  0  0  0  0  0  0  0  0  0  0
   40.3102  -19.6751   32.8589 C   0  0  0  0  0  0  0  0  0  0  0  0
   41.4971  -18.9057   32.7393 N   0  0  0  0  0  0  0  0  0  0  0  0
   41.3104  -17.9455   32.4287 H   0  0  0  0  0  0  0  0  0  0  0  0
   42.2730  -19.3894   32.2745 H   0  0  0  0  0  0  0  0  0  0  0  0
 17 18  1  0  0  0
 18 16  1  0  0  0
 16  7  1  0  0  0
  7  8  2  0  0  0
  8  9  1  0  0  0
  8 10  1  0  0  0
 10 11  2  0  0  0
 11 12  1  0  0  0
 12 13  2  0  0  0
 13  1  1  0  0  0
  1  2  1  0  0  0
  2  3  1  0  0  0
  3  4  1  0  0  0
  4 19  1  0  0  0
 19 30  1  0  0  0
 30 31  1  0  0  0
 19 20  1  0  0  0
 20 21  2  0  0  0
 21 22  1  0  0  0
 22 23  2  0  0  0
 23 26  1  0  0  0
 26 27  1  0  0  0
 26 28  1  0  0  0
 26 29  1  0  0  0
 23 24  1  0  0  0
 24 25  2  0  0  0
  4  5  1  0  0  0
  5  6  1  0  0  0
 13  7  1  0  0  0
  6  1  1  0  0  0
 25 20  1  0  0  0
  9 14  1  0  0  0
  9 15  1  0  0  0
 31 32  1  0  0  0
 31 33  1  0  0  0
M  END
> <minimizedAffinity>
-5.55025

> <CNNscore>
0.4830650389

> <CNNaffinity>
5.3937153816

> <CNN_VS>
2.6055152416

> <CNNaffinity_variance>
0.2907634377

$$$$
[H]c1nc(N([H])[H])c(OC([H])([H])C([H])([H])[H])c(N2C([H])([H])C([H])([H])N(C([H])(c3c([H])c([H])c(C(F)(F)F)c([H])c3[H])C([H])([H])N([H])[H])C([H])([H])C2([H])[H])n1


 33 35  0  0  0  0  0  0  0  0999 V2000
   36.6707  -17.4924   35.5228 N   0  0  0  0  0  0  0  0  0  0  0  0
   36.5642  -17.9846   34.1675 C   0  0  0  0  0  0  0  0  0  0  0  0
   37.9865  -18.3304   33.7980 C   0  0  0  0  0  0  0  0  0  0  0  0
   38.2923  -19.6823   34.3342 N   0  0  0  0  0  0  0  0  0  0  0  0
   37.7043  -19.7023   35.6768 C   0  0  0  0  0  0  0  0  0  0  0  0
   37.6078  -18.3642   36.3201 C   0  0  0  0  0  0  0  0  0  0  0  0
   34.8232  -15.8823   36.0407 C   0  0  0  0  0  0  0  0  0  0  0  0
   34.4260  -14.7149   36.7282 C   0  0  0  0  0  0  0  0  0  0  0  0
   33.1263  -14.1834   36.5607 N   0  0  0  0  0  0  0  0  0  0  0  0
   35.2757  -14.1061   37.5400 N   0  0  0  0  0  0  0  0  0  0  0  0
   36.5119  -14.6255   37.6916 C   0  0  0  0  0  0  0  0  0  0  0  0
   36.8897  -15.7255   37.0413 N   0  0  0  0  0  0  0  0  0  0  0  0
   36.0563  -16.4176   36.1710 C   0  0  0  0  0  0  0  0  0  0  0  0
   32.5952  -13.8695   37.4167 H   0  0  0  0  0  0  0  0  0  0  0  0
   32.6646  -14.0781   35.6167 H   0  0  0  0  0  0  0  0  0  0  0  0
   33.8397  -16.4247   35.2283 O   0  0  0  0  0  0  0  0  0  0  0  0
   32.8467  -18.3780   34.2662 C   0  0  0  0  0  0  0  0  0  0  0  0
   33.2325  -17.6690   35.5450 C   0  0  0  0  0  0  0  0  0  0  0  0
   39.7308  -19.7974   34.4710 C   0  0  0  0  0  0  0  0  0  0  0  0
   40.1508  -21.1566   34.8512 C   0  0  0  0  0  0  0  0  0  0  0  0
   41.1322  -21.3079   35.8125 C   0  0  0  0  0  0  0  0  0  0  0  0
   41.6471  -22.5564   36.1321 C   0  0  0  0  0  0  0  0  0  0  0  0
   41.1869  -23.6814   35.4845 C   0  0  0  0  0  0  0  0  0  0  0  0
   40.2085  -23.5698   34.5263 C   0  0  0  0  0  0  0  0  0  0  0  0
   39.7155  -22.2942   34.2371 C   0  0  0  0  0  0  0  0  0  0  0  0
   41.7803  -25.0074   35.7842 C   0  0  0  0  0  0  0  0  0  0  0  0
   41.7730  -25.7320   34.5703 F   0  0  0  0  0  0  0  0  0  0  0  0
   41.0493  -25.7433   36.6841 F   0  0  0  0  0  0  0  0  0  0  0  0
   43.1055  -24.9058   36.1354 F   0  0  0  0  0  0  0  0  0  0  0  0
   40.3212  -19.5853   33.0590 C   0  0  0  0  0  0  0  0  0  0  0  0
   41.3975  -18.6605   33.0258 N   0  0  0  0  0  0  0  0  0  0  0  0
   41.0948  -17.7185   32.7530 H   0  0  0  0  0  0  0  0  0  0  0  0
   42.2473  -19.0124   32.5720 H   0  0  0  0  0  0  0  0  0  0  0  0
 17 18  1  0  0  0
 18 16  1  0  0  0
 16  7  1  0  0  0
  7  8  2  0  0  0
  8  9  1  0  0  0
  8 10  1  0  0  0
 10 11  2  0  0  0
 11 12  1  0  0  0
 12 13  2  0  0  0
 13  1  1  0  0  0
  1  2  1  0  0  0
  2  3  1  0  0  0
  3  4  1  0  0  0
  4 19  1  0  0  0
 19 30  1  0  0  0
 30 31  1  0  0  0
 19 20  1  0  0  0
 20 21  2  0  0  0
 21 22  1  0  0  0
 22 23  2  0  0  0
 23 26  1  0  0  0
 26 27  1  0  0  0
 26 28  1  0  0  0
 26 29  1  0  0  0
 23 24  1  0  0  0
 24 25  2  0  0  0
  4  5  1  0  0  0
  5  6  1  0  0  0
 13  7  1  0  0  0
  6  1  1  0  0  0
 25 20  1  0  0  0
  9 14  1  0  0  0
  9 15  1  0  0  0
 31 32  1  0  0  0
 31 33  1  0  0  0
M  END
> <minimizedAffinity>
-5.71931

> <CNNscore>
0.4403381944

> <CNNaffinity>
5.3415260315

> <CNN_VS>
2.3520779610

> <CNNaffinity_variance>
0.3540917337

$$$$
[H]c1nc(N([H])[H])c(OC([H])([H])C([H])([H])[H])c(N2C([H])([H])C([H])([H])N(C([H])(c3c([H])c([H])c(C(F)(F)F)c([H])c3[H])C([H])([H])N([H])[H])C([H])([H])C2([H])[H])n1


 33 35  0  0  0  0  0  0  0  0999 V2000
   37.0202  -18.9021   35.2047 N   0  0  0  0  0  0  0  0  0  0  0  0
   37.6170  -19.8359   34.2761 C   0  0  0  0  0  0  0  0  0  0  0  0
   39.0100  -19.2934   34.0661 C   0  0  0  0  0  0  0  0  0  0  0  0
   39.8665  -19.7605   35.1873 N   0  0  0  0  0  0  0  0  0  0  0  0
   39.0382  -19.6125   36.3876 C   0  0  0  0  0  0  0  0  0  0  0  0
   38.0063  -18.5453   36.2884 C   0  0  0  0  0  0  0  0  0  0  0  0
   35.3377  -17.0589   35.4167 C   0  0  0  0  0  0  0  0  0  0  0  0
   33.9777  -16.7049   35.5523 C   0  0  0  0  0  0  0  0  0  0  0  0
   33.5946  -15.3537   35.7172 N   0  0  0  0  0  0  0  0  0  0  0  0
   33.0457  -17.6444   35.5262 N   0  0  0  0  0  0  0  0  0  0  0  0
   33.4257  -18.9293   35.3664 C   0  0  0  0  0  0  0  0  0  0  0  0
   34.7089  -19.2658   35.2412 N   0  0  0  0  0  0  0  0  0  0  0  0
   35.7431  -18.3378   35.2619 C   0  0  0  0  0  0  0  0  0  0  0  0
   32.7765  -14.9894   35.1593 H   0  0  0  0  0  0  0  0  0  0  0  0
   34.0846  -14.6931   36.3798 H   0  0  0  0  0  0  0  0  0  0  0  0
   36.2106  -15.9828   35.4548 O   0  0  0  0  0  0  0  0  0  0  0  0
   36.7450  -15.6220   37.7594 C   0  0  0  0  0  0  0  0  0  0  0  0
   36.1489  -15.0269   36.5035 C   0  0  0  0  0  0  0  0  0  0  0  0
   40.9917  -18.8538   35.3021 C   0  0  0  0  0  0  0  0  0  0  0  0
   41.8306  -19.1475   36.4761 C   0  0  0  0  0  0  0  0  0  0  0  0
   41.9784  -20.4611   36.8795 C   0  0  0  0  0  0  0  0  0  0  0  0
   42.6639  -20.7899   38.0405 C   0  0  0  0  0  0  0  0  0  0  0  0
   43.2119  -19.7993   38.8248 C   0  0  0  0  0  0  0  0  0  0  0  0
   43.0889  -18.4824   38.4527 C   0  0  0  0  0  0  0  0  0  0  0  0
   42.3932  -18.1954   37.2747 C   0  0  0  0  0  0  0  0  0  0  0  0
   43.8922  -20.1478   40.0961 C   0  0  0  0  0  0  0  0  0  0  0  0
   42.8708  -20.4417   41.0282 F   0  0  0  0  0  0  0  0  0  0  0  0
   44.6220  -19.1132   40.6276 F   0  0  0  0  0  0  0  0  0  0  0  0
   44.6217  -21.3074   39.9832 F   0  0  0  0  0  0  0  0  0  0  0  0
   41.9043  -19.1360   34.0877 C   0  0  0  0  0  0  0  0  0  0  0  0
   42.6726  -18.0139   33.6810 N   0  0  0  0  0  0  0  0  0  0  0  0
   42.2389  -17.5051   32.9023 H   0  0  0  0  0  0  0  0  0  0  0  0
   43.6791  -18.1937   33.5999 H   0  0  0  0  0  0  0  0  0  0  0  0
 17 18  1  0  0  0
 18 16  1  0  0  0
 16  7  1  0  0  0
  7  8  2  0  0  0
  8  9  1  0  0  0
  8 10  1  0  0  0
 10 11  2  0  0  0
 11 12  1  0  0  0
 12 13  2  0  0  0
 13  1  1  0  0  0
  1  2  1  0  0  0
  2  3  1  0  0  0
  3  4  1  0  0  0
  4 19  1  0  0  0
 19 30  1  0  0  0
 30 31  1  0  0  0
 19 20  1  0  0  0
 20 21  2  0  0  0
 21 22  1  0  0  0
 22 23  2  0  0  0
 23 26  1  0  0  0
 26 27  1  0  0  0
 26 28  1  0  0  0
 26 29  1  0  0  0
 23 24  1  0  0  0
 24 25  2  0  0  0
  4  5  1  0  0  0
  5  6  1  0  0  0
 13  7  1  0  0  0
  6  1  1  0  0  0
 25 20  1  0  0  0
  9 14  1  0  0  0
  9 15  1  0  0  0
 31 32  1  0  0  0
 31 33  1  0  0  0
M  END
> <minimizedAffinity>
-5.87654

> <CNNscore>
0.3814599812

> <CNNaffinity>
5.0910849571

> <CNN_VS>
1.9420452118

> <CNNaffinity_variance>
0.3920005560

$$$$
[H]c1nc(N([H])[H])c(OC([H])([H])C([H])([H])[H])c(N2C([H])([H])C([H])([H])N(C([H])(c3c([H])c([H])c(C(F)(F)F)c([H])c3[H])C([H])([H])N([H])[H])C([H])([H])C2([H])[H])n1


 33 35  0  0  0  0  0  0  0  0999 V2000
   37.0011  -18.5973   35.4144 N   0  0  0  0  0  0  0  0  0  0  0  0
   37.4631  -19.4744   34.3620 C   0  0  0  0  0  0  0  0  0  0  0  0
   38.9002  -19.0611   34.1547 C   0  0  0  0  0  0  0  0  0  0  0  0
   39.7341  -19.7433   35.1784 N   0  0  0  0  0  0  0  0  0  0  0  0
   38.9641  -19.6494   36.4222 C   0  0  0  0  0  0  0  0  0  0  0  0
   38.0530  -18.4750   36.4880 C   0  0  0  0  0  0  0  0  0  0  0  0
   34.5129  -18.3154   35.4672 C   0  0  0  0  0  0  0  0  0  0  0  0
   33.4227  -17.4267   35.5904 C   0  0  0  0  0  0  0  0  0  0  0  0
   32.0934  -17.8884   35.4509 N   0  0  0  0  0  0  0  0  0  0  0  0
   33.6412  -16.1451   35.8387 N   0  0  0  0  0  0  0  0  0  0  0  0
   34.9147  -15.7190   35.9711 C   0  0  0  0  0  0  0  0  0  0  0  0
   35.9450  -16.5555   35.8523 N   0  0  0  0  0  0  0  0  0  0  0  0
   35.7959  -17.9119   35.5894 C   0  0  0  0  0  0  0  0  0  0  0  0
   31.3697  -17.5603   36.1452 H   0  0  0  0  0  0  0  0  0  0  0  0
   31.7886  -18.5409   34.6783 H   0  0  0  0  0  0  0  0  0  0  0  0
   34.1485  -19.6285   35.2135 O   0  0  0  0  0  0  0  0  0  0  0  0
   32.8426  -21.3983   36.1566 C   0  0  0  0  0  0  0  0  0  0  0  0
   34.1199  -20.5945   36.2543 C   0  0  0  0  0  0  0  0  0  0  0  0
   40.9549  -18.9799   35.3460 C   0  0  0  0  0  0  0  0  0  0  0  0
   41.7957  -19.4997   36.4375 C   0  0  0  0  0  0  0  0  0  0  0  0
   42.1353  -20.8394   36.4387 C   0  0  0  0  0  0  0  0  0  0  0  0
   42.8304  -21.4098   37.4959 C   0  0  0  0  0  0  0  0  0  0  0  0
   43.1943  -20.6418   38.5796 C   0  0  0  0  0  0  0  0  0  0  0  0
   42.8777  -19.3052   38.6110 C   0  0  0  0  0  0  0  0  0  0  0  0
   42.1796  -18.7704   37.5244 C   0  0  0  0  0  0  0  0  0  0  0  0
   43.8842  -21.2653   39.7353 C   0  0  0  0  0  0  0  0  0  0  0  0
   42.8697  -21.7587   40.5874 F   0  0  0  0  0  0  0  0  0  0  0  0
   44.6212  -20.3757   40.4777 F   0  0  0  0  0  0  0  0  0  0  0  0
   44.6096  -22.3712   39.3605 F   0  0  0  0  0  0  0  0  0  0  0  0
   41.7899  -19.2069   34.0659 C   0  0  0  0  0  0  0  0  0  0  0  0
   42.8135  -18.2420   33.8763 N   0  0  0  0  0  0  0  0  0  0  0  0
   42.5279  -17.4898   33.2391 H   0  0  0  0  0  0  0  0  0  0  0  0
   43.7474  -18.6367   33.7212 H   0  0  0  0  0  0  0  0  0  0  0  0
 17 18  1  0  0  0
 18 16  1  0  0  0
 16  7  1  0  0  0
  7  8  2  0  0  0
  8  9  1  0  0  0
  8 10  1  0  0  0
 10 11  2  0  0  0
 11 12  1  0  0  0
 12 13  2  0  0  0
 13  1  1  0  0  0
  1  2  1  0  0  0
  2  3  1  0  0  0
  3  4  1  0  0  0
  4 19  1  0  0  0
 19 30  1  0  0  0
 30 31  1  0  0  0
 19 20  1  0  0  0
 20 21  2  0  0  0
 21 22  1  0  0  0
 22 23  2  0  0  0
 23 26  1  0  0  0
 26 27  1  0  0  0
 26 28  1  0  0  0
 26 29  1  0  0  0
 23 24  1  0  0  0
 24 25  2  0  0  0
  4  5  1  0  0  0
  5  6  1  0  0  0
 13  7  1  0  0  0
  6  1  1  0  0  0
 25 20  1  0  0  0
  9 14  1  0  0  0
  9 15  1  0  0  0
 31 32  1  0  0  0
 31 33  1  0  0  0
M  END
> <minimizedAffinity>
-5.07354

> <CNNscore>
0.3153572679

> <CNNaffinity>
4.9564437866

> <CNN_VS>
1.5630506277

> <CNNaffinity_variance>
0.3496820331

$$$$
[H]c1nc(N([H])[H])c(OC([H])([H])C([H])([H])[H])c(N2C([H])([H])C([H])([H])N(C([H])(c3c([H])c([H])c(C(F)(F)F)c([H])c3[H])C([H])([H])N([H])[H])C([H])([H])C2([H])[H])n1


 33 35  0  0  0  0  0  0  0  0999 V2000
   36.7917  -17.6072   35.5055 N   0  0  0  0  0  0  0  0  0  0  0  0
   37.1600  -18.4696   34.4051 C   0  0  0  0  0  0  0  0  0  0  0  0
   38.6693  -18.4405   34.4153 C   0  0  0  0  0  0  0  0  0  0  0  0
   39.1480  -19.4183   35.4270 N   0  0  0  0  0  0  0  0  0  0  0  0
   38.2586  -19.2420   36.5787 C   0  0  0  0  0  0  0  0  0  0  0  0
   37.6765  -17.8778   36.6963 C   0  0  0  0  0  0  0  0  0  0  0  0
   35.8331  -15.3558   36.0402 C   0  0  0  0  0  0  0  0  0  0  0  0
   34.6716  -14.5688   36.1976 C   0  0  0  0  0  0  0  0  0  0  0  0
   34.7609  -13.2253   36.6300 N   0  0  0  0  0  0  0  0  0  0  0  0
   33.4823  -15.0890   35.9395 N   0  0  0  0  0  0  0  0  0  0  0  0
   33.4123  -16.3716   35.5259 C   0  0  0  0  0  0  0  0  0  0  0  0
   34.5070  -17.1170   35.3796 N   0  0  0  0  0  0  0  0  0  0  0  0
   35.7884  -16.6430   35.6338 C   0  0  0  0  0  0  0  0  0  0  0  0
   34.1842  -12.4955   36.1320 H   0  0  0  0  0  0  0  0  0  0  0  0
   35.3727  -12.9190   37.4346 H   0  0  0  0  0  0  0  0  0  0  0  0
   37.0131  -14.6916   36.3367 O   0  0  0  0  0  0  0  0  0  0  0  0
   38.3111  -13.2513   37.7395 C   0  0  0  0  0  0  0  0  0  0  0  0
   37.4050  -14.4607   37.6822 C   0  0  0  0  0  0  0  0  0  0  0  0
   40.4863  -19.0320   35.8283 C   0  0  0  0  0  0  0  0  0  0  0  0
   41.1509  -20.0692   36.6351 C   0  0  0  0  0  0  0  0  0  0  0  0
   41.5761  -19.7519   37.9113 C   0  0  0  0  0  0  0  0  0  0  0  0
   42.3054  -20.6511   38.6766 C   0  0  0  0  0  0  0  0  0  0  0  0
   42.6272  -21.8903   38.1691 C   0  0  0  0  0  0  0  0  0  0  0  0
   42.2174  -22.2421   36.9058 C   0  0  0  0  0  0  0  0  0  0  0  0
   41.4825  -21.3079   36.1701 C   0  0  0  0  0  0  0  0  0  0  0  0
   43.4576  -22.8273   38.9646 C   0  0  0  0  0  0  0  0  0  0  0  0
   44.6161  -23.0852   38.1965 F   0  0  0  0  0  0  0  0  0  0  0  0
   42.8548  -24.0414   39.1841 F   0  0  0  0  0  0  0  0  0  0  0  0
   43.9152  -22.2459   40.1231 F   0  0  0  0  0  0  0  0  0  0  0  0
   41.3228  -18.9480   34.5319 C   0  0  0  0  0  0  0  0  0  0  0  0
   42.1349  -17.7865   34.4536 N   0  0  0  0  0  0  0  0  0  0  0  0
   41.6953  -17.0387   33.9050 H   0  0  0  0  0  0  0  0  0  0  0  0
   43.1243  -17.9712   34.2564 H   0  0  0  0  0  0  0  0  0  0  0  0
 17 18  1  0  0  0
 18 16  1  0  0  0
 16  7  1  0  0  0
  7  8  2  0  0  0
  8  9  1  0  0  0
  8 10  1  0  0  0
 10 11  2  0  0  0
 11 12  1  0  0  0
 12 13  2  0  0  0
 13  1  1  0  0  0
  1  2  1  0  0  0
  2  3  1  0  0  0
  3  4  1  0  0  0
  4 19  1  0  0  0
 19 30  1  0  0  0
 30 31  1  0  0  0
 19 20  1  0  0  0
 20 21  2  0  0  0
 21 22  1  0  0  0
 22 23  2  0  0  0
 23 26  1  0  0  0
 26 27  1  0  0  0
 26 28  1  0  0  0
 26 29  1  0  0  0
 23 24  1  0  0  0
 24 25  2  0  0  0
  4  5  1  0  0  0
  5  6  1  0  0  0
 13  7  1  0  0  0
  6  1  1  0  0  0
 25 20  1  0  0  0
  9 14  1  0  0  0
  9 15  1  0  0  0
 31 32  1  0  0  0
 31 33  1  0  0  0
M  END
> <minimizedAffinity>
-5.28796

> <CNNscore>
0.3015676439

> <CNNaffinity>
5.2899065018

> <CNN_VS>
1.5952646732

> <CNNaffinity_variance>
0.3250214159

$$$$
[H]c1nc(N([H])[H])c(OC([H])([H])C([H])([H])[H])c(N2C([H])([H])C([H])([H])N(C([H])(c3c([H])c([H])c(C(F)(F)F)c([H])c3[H])C([H])([H])N([H])[H])C([H])([H])C2([H])[H])n1


 33 35  0  0  0  0  0  0  0  0999 V2000
   35.6950  -16.7273   36.0541 N   0  0  0  0  0  0  0  0  0  0  0  0
   35.9236  -17.6859   34.9962 C   0  0  0  0  0  0  0  0  0  0  0  0
   37.2746  -18.2722   35.3282 C   0  0  0  0  0  0  0  0  0  0  0  0
   37.0828  -19.3405   36.3435 N   0  0  0  0  0  0  0  0  0  0  0  0
   36.1051  -18.7961   37.2903 C   0  0  0  0  0  0  0  0  0  0  0  0
   36.1069  -17.3110   37.3821 C   0  0  0  0  0  0  0  0  0  0  0  0
   35.7386  -14.2275   36.2039 C   0  0  0  0  0  0  0  0  0  0  0  0
   34.9931  -13.0295   36.2527 C   0  0  0  0  0  0  0  0  0  0  0  0
   35.6369  -11.7834   36.4332 N   0  0  0  0  0  0  0  0  0  0  0  0
   33.6758  -13.0668   36.1292 N   0  0  0  0  0  0  0  0  0  0  0  0
   33.0752  -14.2627   35.9557 C   0  0  0  0  0  0  0  0  0  0  0  0
   33.7767  -15.3947   35.9123 N   0  0  0  0  0  0  0  0  0  0  0  0
   35.1600  -15.4364   36.0375 C   0  0  0  0  0  0  0  0  0  0  0  0
   35.3404  -10.9701   35.8299 H   0  0  0  0  0  0  0  0  0  0  0  0
   36.3962  -11.6262   37.1503 H   0  0  0  0  0  0  0  0  0  0  0  0
   37.1067  -14.0503   36.3395 O   0  0  0  0  0  0  0  0  0  0  0  0
   38.6627  -12.9731   37.8043 C   0  0  0  0  0  0  0  0  0  0  0  0
   37.7358  -14.1519   37.6089 C   0  0  0  0  0  0  0  0  0  0  0  0
   38.3370  -19.5234   37.0468 C   0  0  0  0  0  0  0  0  0  0  0  0
   38.5477  -20.9201   37.4632 C   0  0  0  0  0  0  0  0  0  0  0  0
   38.4586  -21.9206   36.5139 C   0  0  0  0  0  0  0  0  0  0  0  0
   38.5371  -23.2611   36.8643 C   0  0  0  0  0  0  0  0  0  0  0  0
   38.7021  -23.6233   38.1827 C   0  0  0  0  0  0  0  0  0  0  0  0
   38.7992  -22.6557   39.1534 C   0  0  0  0  0  0  0  0  0  0  0  0
   38.7180  -21.3177   38.7568 C   0  0  0  0  0  0  0  0  0  0  0  0
   38.7256  -25.0569   38.5631 C   0  0  0  0  0  0  0  0  0  0  0  0
   39.6106  -25.1646   39.6602 F   0  0  0  0  0  0  0  0  0  0  0  0
   39.2205  -25.8762   37.5785 F   0  0  0  0  0  0  0  0  0  0  0  0
   37.5072  -25.4783   39.0400 F   0  0  0  0  0  0  0  0  0  0  0  0
   39.4572  -19.2477   36.0189 C   0  0  0  0  0  0  0  0  0  0  0  0
   40.5491  -18.5134   36.5513 N   0  0  0  0  0  0  0  0  0  0  0  0
   40.4799  -17.5094   36.3499 H   0  0  0  0  0  0  0  0  0  0  0  0
   41.4672  -18.9440   36.3974 H   0  0  0  0  0  0  0  0  0  0  0  0
 17 18  1  0  0  0
 18 16  1  0  0  0
 16  7  1  0  0  0
  7  8  2  0  0  0
  8  9  1  0  0  0
  8 10  1  0  0  0
 10 11  2  0  0  0
 11 12  1  0  0  0
 12 13  2  0  0  0
 13  1  1  0  0  0
  1  2  1  0  0  0
  2  3  1  0  0  0
  3  4  1  0  0  0
  4 19  1  0  0  0
 19 30  1  0  0  0
 30 31  1  0  0  0
 19 20  1  0  0  0
 20 21  2  0  0  0
 21 22  1  0  0  0
 22 23  2  0  0  0
 23 26  1  0  0  0
 26 27  1  0  0  0
 26 28  1  0  0  0
 26 29  1  0  0  0
 23 24  1  0  0  0
 24 25  2  0  0  0
  4  5  1  0  0  0
  5  6  1  0  0  0
 13  7  1  0  0  0
  6  1  1  0  0  0
 25 20  1  0  0  0
  9 14  1  0  0  0
  9 15  1  0  0  0
 31 32  1  0  0  0
 31 33  1  0  0  0
M  END
> <minimizedAffinity>
-4.68596

> <CNNscore>
0.2756310403

> <CNNaffinity>
5.2945671082

> <CNN_VS>
1.4593470097

> <CNNaffinity_variance>
0.1626563221

$$$$
[H]c1nc(N([H])[H])c(OC([H])([H])C([H])([H])[H])c(N2C([H])([H])C([H])([H])N(C([H])(c3c([H])c([H])c(C(F)(F)F)c([H])c3[H])C([H])([H])N([H])[H])C([H])([H])C2([H])[H])n1


 33 35  0  0  0  0  0  0  0  0999 V2000
   31.2158  -20.5477   35.6432 N   0  0  0  0  0  0  0  0  0  0  0  0
   31.0048  -19.2191   35.1135 C   0  0  0  0  0  0  0  0  0  0  0  0
   32.2302  -18.4568   35.5564 C   0  0  0  0  0  0  0  0  0  0  0  0
   33.3273  -18.7370   34.5937 N   0  0  0  0  0  0  0  0  0  0  0  0
   33.2382  -20.1746   34.3215 C   0  0  0  0  0  0  0  0  0  0  0  0
   32.6480  -20.9699   35.4319 C   0  0  0  0  0  0  0  0  0  0  0  0
   30.2658  -22.7985   36.1955 C   0  0  0  0  0  0  0  0  0  0  0  0
   29.2315  -23.5277   36.8214 C   0  0  0  0  0  0  0  0  0  0  0  0
   29.1823  -24.9380   36.7295 N   0  0  0  0  0  0  0  0  0  0  0  0
   28.2937  -22.8894   37.5033 N   0  0  0  0  0  0  0  0  0  0  0  0
   28.3542  -21.5437   37.5841 C   0  0  0  0  0  0  0  0  0  0  0  0
   29.3279  -20.8535   36.9916 N   0  0  0  0  0  0  0  0  0  0  0  0
   30.3445  -21.4516   36.2568 C   0  0  0  0  0  0  0  0  0  0  0  0
   28.9750  -25.4937   37.6021 H   0  0  0  0  0  0  0  0  0  0  0  0
   29.3357  -25.4616   35.8252 H   0  0  0  0  0  0  0  0  0  0  0  0
   31.1858  -23.5850   35.5199 O   0  0  0  0  0  0  0  0  0  0  0  0
   31.4392  -25.3765   33.9536 C   0  0  0  0  0  0  0  0  0  0  0  0
   30.9795  -23.9512   34.1632 C   0  0  0  0  0  0  0  0  0  0  0  0
   34.5883  -18.4826   35.2618 C   0  0  0  0  0  0  0  0  0  0  0  0
   34.8109  -17.0486   35.5116 C   0  0  0  0  0  0  0  0  0  0  0  0
   36.1071  -16.5868   35.6422 C   0  0  0  0  0  0  0  0  0  0  0  0
   36.3758  -15.2699   35.9876 C   0  0  0  0  0  0  0  0  0  0  0  0
   35.3417  -14.3891   36.2146 C   0  0  0  0  0  0  0  0  0  0  0  0
   34.0403  -14.8115   36.0896 C   0  0  0  0  0  0  0  0  0  0  0  0
   33.8141  -16.1451   35.7372 C   0  0  0  0  0  0  0  0  0  0  0  0
   35.6296  -12.9981   36.6421 C   0  0  0  0  0  0  0  0  0  0  0  0
   34.7458  -12.7170   37.7090 F   0  0  0  0  0  0  0  0  0  0  0  0
   35.3780  -12.0632   35.6682 F   0  0  0  0  0  0  0  0  0  0  0  0
   36.8902  -12.8793   37.1773 F   0  0  0  0  0  0  0  0  0  0  0  0
   34.4711  -19.1119   36.6681 C   0  0  0  0  0  0  0  0  0  0  0  0
   35.7146  -19.5326   37.2080 N   0  0  0  0  0  0  0  0  0  0  0  0
   35.8846  -20.5343   37.0629 H   0  0  0  0  0  0  0  0  0  0  0  0
   35.9158  -19.1704   38.1462 H   0  0  0  0  0  0  0  0  0  0  0  0
 17 18  1  0  0  0
 18 16  1  0  0  0
 16  7  1  0  0  0
  7  8  2  0  0  0
  8  9  1  0  0  0
  8 10  1  0  0  0
 10 11  2  0  0  0
 11 12  1  0  0  0
 12 13  2  0  0  0
 13  1  1  0  0  0
  1  2  1  0  0  0
  2  3  1  0  0  0
  3  4  1  0  0  0
  4 19  1  0  0  0
 19 30  1  0  0  0
 30 31  1  0  0  0
 19 20  1  0  0  0
 20 21  2  0  0  0
 21 22  1  0  0  0
 22 23  2  0  0  0
 23 26  1  0  0  0
 26 27  1  0  0  0
 26 28  1  0  0  0
 26 29  1  0  0  0
 23 24  1  0  0  0
 24 25  2  0  0  0
  4  5  1  0  0  0
  5  6  1  0  0  0
 13  7  1  0  0  0
  6  1  1  0  0  0
 25 20  1  0  0  0
  9 14  1  0  0  0
  9 15  1  0  0  0
 31 32  1  0  0  0
 31 33  1  0  0  0
M  END
> <minimizedAffinity>
-6.86723

> <CNNscore>
0.2541147768

> <CNNaffinity>
4.9401545525

> <CNN_VS>
1.2553663254

> <CNNaffinity_variance>
0.3883059621

$$$$
[H]c1nc(N([H])[H])c(OC([H])([H])C([H])([H])[H])c(N2C([H])([H])C([H])([H])N(C([H])(c3c([H])c([H])c(C(F)(F)F)c([H])c3[H])C([H])([H])N([H])[H])C([H])([H])C2([H])[H])n1


 33 35  0  0  0  0  0  0  0  0999 V2000
   35.8796  -19.8378   36.6387 N   0  0  0  0  0  0  0  0  0  0  0  0
   35.6220  -21.0365   37.4049 C   0  0  0  0  0  0  0  0  0  0  0  0
   36.7652  -21.9511   37.0367 C   0  0  0  0  0  0  0  0  0  0  0  0
   37.9394  -21.5903   37.8734 N   0  0  0  0  0  0  0  0  0  0  0  0
   37.9585  -20.1247   37.8925 C   0  0  0  0  0  0  0  0  0  0  0  0
   37.3462  -19.4914   36.6934 C   0  0  0  0  0  0  0  0  0  0  0  0
   34.7253  -17.6852   36.0843 C   0  0  0  0  0  0  0  0  0  0  0  0
   33.7462  -17.0315   35.3051 C   0  0  0  0  0  0  0  0  0  0  0  0
   33.4559  -15.6623   35.5074 N   0  0  0  0  0  0  0  0  0  0  0  0
   33.0884  -17.7028   34.3731 N   0  0  0  0  0  0  0  0  0  0  0  0
   33.3771  -19.0082   34.1899 C   0  0  0  0  0  0  0  0  0  0  0  0
   34.2986  -19.6277   34.9263 N   0  0  0  0  0  0  0  0  0  0  0  0
   35.0274  -18.9918   35.9241 C   0  0  0  0  0  0  0  0  0  0  0  0
   33.3541  -15.0378   34.6630 H   0  0  0  0  0  0  0  0  0  0  0  0
   33.3280  -15.2363   36.4654 H   0  0  0  0  0  0  0  0  0  0  0  0
   35.3437  -16.8699   37.0193 O   0  0  0  0  0  0  0  0  0  0  0  0
   36.7538  -15.0756   37.7398 C   0  0  0  0  0  0  0  0  0  0  0  0
   36.5173  -16.1400   36.6919 C   0  0  0  0  0  0  0  0  0  0  0  0
   39.1347  -22.0473   37.1925 C   0  0  0  0  0  0  0  0  0  0  0  0
   40.3362  -21.3058   37.6108 C   0  0  0  0  0  0  0  0  0  0  0  0
   40.6481  -21.2439   38.9558 C   0  0  0  0  0  0  0  0  0  0  0  0
   41.7021  -20.4698   39.4204 C   0  0  0  0  0  0  0  0  0  0  0  0
   42.4630  -19.7354   38.5380 C   0  0  0  0  0  0  0  0  0  0  0  0
   42.1850  -19.7762   37.1931 C   0  0  0  0  0  0  0  0  0  0  0  0
   41.1166  -20.5708   36.7674 C   0  0  0  0  0  0  0  0  0  0  0  0
   43.5509  -18.8619   39.0419 C   0  0  0  0  0  0  0  0  0  0  0  0
   44.6217  -19.7172   39.3887 F   0  0  0  0  0  0  0  0  0  0  0  0
   43.2156  -18.1721   40.1809 F   0  0  0  0  0  0  0  0  0  0  0  0
   44.0475  -18.0445   38.0545 F   0  0  0  0  0  0  0  0  0  0  0  0
   39.3817  -23.4957   37.6706 C   0  0  0  0  0  0  0  0  0  0  0  0
   40.3111  -24.2084   36.8687 N   0  0  0  0  0  0  0  0  0  0  0  0
   39.8498  -24.7990   36.1676 H   0  0  0  0  0  0  0  0  0  0  0  0
   41.0798  -24.6420   37.3913 H   0  0  0  0  0  0  0  0  0  0  0  0
 17 18  1  0  0  0
 18 16  1  0  0  0
 16  7  1  0  0  0
  7  8  2  0  0  0
  8  9  1  0  0  0
  8 10  1  0  0  0
 10 11  2  0  0  0
 11 12  1  0  0  0
 12 13  2  0  0  0
 13  1  1  0  0  0
  1  2  1  0  0  0
  2  3  1  0  0  0
  3  4  1  0  0  0
  4 19  1  0  0  0
 19 30  1  0  0  0
 30 31  1  0  0  0
 19 20  1  0  0  0
 20 21  2  0  0  0
 21 22  1  0  0  0
 22 23  2  0  0  0
 23 26  1  0  0  0
 26 27  1  0  0  0
 26 28  1  0  0  0
 26 29  1  0  0  0
 23 24  1  0  0  0
 24 25  2  0  0  0
  4  5  1  0  0  0
  5  6  1  0  0  0
 13  7  1  0  0  0
  6  1  1  0  0  0
 25 20  1  0  0  0
  9 14  1  0  0  0
  9 15  1  0  0  0
 31 32  1  0  0  0
 31 33  1  0  0  0
M  END
> <minimizedAffinity>
-4.99995

> <CNNscore>
0.2479028106

> <CNNaffinity>
4.6870684624

> <CNN_VS>
1.1619374752

> <CNNaffinity_variance>
0.4596748948

$$$$
[H]c1nc(N([H])[H])c(OC([H])([H])C([H])([H])[H])c(N2C([H])([H])C([H])([H])N(C([H])(c3c([H])c([H])c(C(F)(F)F)c([H])c3[H])C([H])([H])N([H])[H])C([H])([H])C2([H])[H])n1


 33 35  0  0  0  0  0  0  0  0999 V2000
   36.3879  -17.5300   35.9485 N   0  0  0  0  0  0  0  0  0  0  0  0
   36.7289  -17.9990   34.6241 C   0  0  0  0  0  0  0  0  0  0  0  0
   38.0679  -18.6699   34.8141 C   0  0  0  0  0  0  0  0  0  0  0  0
   37.8318  -20.0498   35.3128 N   0  0  0  0  0  0  0  0  0  0  0  0
   36.7663  -19.9179   36.3108 C   0  0  0  0  0  0  0  0  0  0  0  0
   36.7135  -18.5869   36.9738 C   0  0  0  0  0  0  0  0  0  0  0  0
   34.6399  -15.7417   36.0887 C   0  0  0  0  0  0  0  0  0  0  0  0
   34.2872  -14.4640   36.5751 C   0  0  0  0  0  0  0  0  0  0  0  0
   33.0484  -13.8753   36.2310 N   0  0  0  0  0  0  0  0  0  0  0  0
   35.1220  -13.8044   37.3624 N   0  0  0  0  0  0  0  0  0  0  0  0
   36.2999  -14.3791   37.6839 C   0  0  0  0  0  0  0  0  0  0  0  0
   36.6358  -15.5835   37.2235 N   0  0  0  0  0  0  0  0  0  0  0  0
   35.8149  -16.3348   36.3912 C   0  0  0  0  0  0  0  0  0  0  0  0
   32.4838  -13.4075   36.9898 H   0  0  0  0  0  0  0  0  0  0  0  0
   32.6648  -13.8749   35.2469 H   0  0  0  0  0  0  0  0  0  0  0  0
   33.6774  -16.3268   35.2808 O   0  0  0  0  0  0  0  0  0  0  0  0
   32.9735  -18.3915   34.2967 C   0  0  0  0  0  0  0  0  0  0  0  0
   33.1533  -17.6124   35.5803 C   0  0  0  0  0  0  0  0  0  0  0  0
   39.0326  -20.4945   35.9923 C   0  0  0  0  0  0  0  0  0  0  0  0
   38.7342  -21.2716   37.2069 C   0  0  0  0  0  0  0  0  0  0  0  0
   37.9620  -22.4126   37.0967 C   0  0  0  0  0  0  0  0  0  0  0  0
   37.5555  -23.1235   38.2172 C   0  0  0  0  0  0  0  0  0  0  0  0
   37.9147  -22.6958   39.4761 C   0  0  0  0  0  0  0  0  0  0  0  0
   38.6856  -21.5682   39.6240 C   0  0  0  0  0  0  0  0  0  0  0  0
   39.0758  -20.8838   38.4693 C   0  0  0  0  0  0  0  0  0  0  0  0
   37.4296  -23.4221   40.6751 C   0  0  0  0  0  0  0  0  0  0  0  0
   36.9770  -24.6827   40.2226 F   0  0  0  0  0  0  0  0  0  0  0  0
   36.3586  -22.8171   41.2853 F   0  0  0  0  0  0  0  0  0  0  0  0
   38.4515  -23.6994   41.5517 F   0  0  0  0  0  0  0  0  0  0  0  0
   39.7231  -21.4997   35.0436 C   0  0  0  0  0  0  0  0  0  0  0  0
   38.9201  -21.8810   33.9370 N   0  0  0  0  0  0  0  0  0  0  0  0
   38.4327  -22.7701   34.0961 H   0  0  0  0  0  0  0  0  0  0  0  0
   39.3733  -21.7699   33.0237 H   0  0  0  0  0  0  0  0  0  0  0  0
 17 18  1  0  0  0
 18 16  1  0  0  0
 16  7  1  0  0  0
  7  8  2  0  0  0
  8  9  1  0  0  0
  8 10  1  0  0  0
 10 11  2  0  0  0
 11 12  1  0  0  0
 12 13  2  0  0  0
 13  1  1  0  0  0
  1  2  1  0  0  0
  2  3  1  0  0  0
  3  4  1  0  0  0
  4 19  1  0  0  0
 19 30  1  0  0  0
 30 31  1  0  0  0
 19 20  1  0  0  0
 20 21  2  0  0  0
 21 22  1  0  0  0
 22 23  2  0  0  0
 23 26  1  0  0  0
 26 27  1  0  0  0
 26 28  1  0  0  0
 26 29  1  0  0  0
 23 24  1  0  0  0
 24 25  2  0  0  0
  4  5  1  0  0  0
  5  6  1  0  0  0
 13  7  1  0  0  0
  6  1  1  0  0  0
 25 20  1  0  0  0
  9 14  1  0  0  0
  9 15  1  0  0  0
 31 32  1  0  0  0
 31 33  1  0  0  0
M  END
> <minimizedAffinity>
-5.48137

> <CNNscore>
0.1921430677

> <CNNaffinity>
5.1629710197

> <CNN_VS>
0.9920290709

> <CNNaffinity_variance>
0.3633815348

$$$$
[H]OC(=O)[C@@]([H])(Oc1c(Br)c([H])c(-c2c([H])c([H])c(-c3c(C([H])([H])c4c([H])c([H])c([H])c([H])c4[H])oc4c([H])c([H])c([H])c([H])c34)c([H])c2[H])c([H])c1Br)C([H])([H])c1c([H])c([H])c([H])c([H])c1[H]


 43 48  0  0  0  0  0  0  0  0999 V2000
   38.9950  -21.8516   38.1117 C   0  0  0  0  0  0  0  0  0  0  0  0
   39.9879  -22.5810   37.4871 C   0  0  0  0  0  0  0  0  0  0  0  0
   41.2003  -21.9791   37.2706 C   0  0  0  0  0  0  0  0  0  0  0  0
   41.5127  -20.6900   37.6299 C   0  0  0  0  0  0  0  0  0  0  0  0
   40.4771  -19.9840   38.2626 C   0  0  0  0  0  0  0  0  0  0  0  0
   39.2599  -20.5568   38.4913 C   0  0  0  0  0  0  0  0  0  0  0  0
   42.7824  -20.0363   37.3772 C   0  0  0  0  0  0  0  0  0  0  0  0
   43.9235  -20.0035   38.0908 C   0  0  0  0  0  0  0  0  0  0  0  0
   44.8092  -19.2297   37.4586 O   0  0  0  0  0  0  0  0  0  0  0  0
   44.3071  -18.7457   36.3524 C   0  0  0  0  0  0  0  0  0  0  0  0
   44.8094  -17.9166   35.3738 C   0  0  0  0  0  0  0  0  0  0  0  0
   44.0492  -17.5524   34.2829 C   0  0  0  0  0  0  0  0  0  0  0  0
   42.7653  -18.0491   34.2059 C   0  0  0  0  0  0  0  0  0  0  0  0
   42.2475  -18.8876   35.1897 C   0  0  0  0  0  0  0  0  0  0  0  0
   43.0233  -19.2244   36.2484 C   0  0  0  0  0  0  0  0  0  0  0  0
   44.2743  -20.6660   39.3644 C   0  0  0  0  0  0  0  0  0  0  0  0
   43.3011  -20.3345   40.4224 C   0  0  0  0  0  0  0  0  0  0  0  0
   43.1112  -19.1099   40.9828 C   0  0  0  0  0  0  0  0  0  0  0  0
   42.1543  -18.8973   41.9881 C   0  0  0  0  0  0  0  0  0  0  0  0
   41.3713  -19.9290   42.4437 C   0  0  0  0  0  0  0  0  0  0  0  0
   41.5467  -21.1776   41.8902 C   0  0  0  0  0  0  0  0  0  0  0  0
   42.4910  -21.3742   40.9008 C   0  0  0  0  0  0  0  0  0  0  0  0
   35.1297  -23.5390   38.9322 C   0  0  0  0  0  0  0  0  0  0  0  0
   35.2711  -22.3744   38.1656 C   0  0  0  0  0  0  0  0  0  0  0  0
   33.6987  -21.5616   37.4721 Br  0  0  0  0  0  0  0  0  0  0  0  0
   36.5149  -21.8339   37.9054 C   0  0  0  0  0  0  0  0  0  0  0  0
   37.6724  -22.4046   38.3790 C   0  0  0  0  0  0  0  0  0  0  0  0
   37.5459  -23.5578   39.1388 C   0  0  0  0  0  0  0  0  0  0  0  0
   36.2811  -24.1011   39.4024 C   0  0  0  0  0  0  0  0  0  0  0  0
   36.2676  -25.6473   40.5550 Br  0  0  0  0  0  0  0  0  0  0  0  0
   33.8987  -24.0763   39.1995 O   0  0  0  0  0  0  0  0  0  0  0  0
   33.2328  -24.1082   40.4542 C   0  0  0  0  0  0  0  0  0  0  0  0
   31.8458  -25.8712   41.3806 O   0  0  0  0  0  0  0  0  0  0  0  0
   32.2847  -25.2413   40.3782 C   0  0  0  0  0  0  0  0  0  0  0  0
   31.8047  -25.6875   39.1526 O   0  0  0  0  0  0  0  0  0  0  0  0
   32.3150  -26.1521   38.4477 H   0  0  0  0  0  0  0  0  0  0  0  0
   32.4862  -22.8186   40.7522 C   0  0  0  0  0  0  0  0  0  0  0  0
   33.1700  -21.9352   41.7150 C   0  0  0  0  0  0  0  0  0  0  0  0
   34.0850  -20.9811   41.2299 C   0  0  0  0  0  0  0  0  0  0  0  0
   34.6998  -20.1324   42.1296 C   0  0  0  0  0  0  0  0  0  0  0  0
   34.4447  -20.1916   43.4891 C   0  0  0  0  0  0  0  0  0  0  0  0
   33.5387  -21.1449   43.9174 C   0  0  0  0  0  0  0  0  0  0  0  0
   32.9053  -22.0072   43.0570 C   0  0  0  0  0  0  0  0  0  0  0  0
 33 34  2  0  0  0
 34 35  1  0  0  0
 34 32  1  0  0  0
 32 37  1  0  0  0
 37 38  1  0  0  0
 38 39  2  0  0  0
 39 40  1  0  0  0
 40 41  2  0  0  0
 41 42  1  0  0  0
 42 43  2  0  0  0
 32 31  1  0  0  0
 31 23  1  0  0  0
 23 24  2  0  0  0
 24 25  1  0  0  0
 24 26  1  0  0  0
 26 27  2  0  0  0
 27  1  1  0  0  0
  1  2  2  0  0  0
  2  3  1  0  0  0
  3  4  2  0  0  0
  4  7  1  0  0  0
  7  8  2  0  0  0
  8 16  1  0  0  0
 16 17  1  0  0  0
 17 18  2  0  0  0
 18 19  1  0  0  0
 19 20  2  0  0  0
 20 21  1  0  0  0
 21 22  2  0  0  0
  8  9  1  0  0  0
  9 10  1  0  0  0
 10 11  2  0  0  0
 11 12  1  0  0  0
 12 13  2  0  0  0
 13 14  1  0  0  0
 14 15  2  0  0  0
  4  5  1  0  0  0
  5  6  2  0  0  0
 27 28  1  0  0  0
 28 29  2  0  0  0
 29 30  1  0  0  0
 43 38  1  0  0  0
 29 23  1  0  0  0
  6  1  1  0  0  0
 15  7  1  0  0  0
 22 17  1  0  0  0
 15 10  1  0  0  0
 35 36  1  0  0  0
M  END
> <minimizedAffinity>
-4.03683

> <CNNscore>
0.4728919864

> <CNNaffinity>
6.2970972061

> <CNN_VS>
2.9778468609

> <CNNaffinity_variance>
0.5104879737

$$$$
[H]OC(=O)[C@@]([H])(Oc1c(Br)c([H])c(-c2c([H])c([H])c(-c3c(C([H])([H])c4c([H])c([H])c([H])c([H])c4[H])oc4c([H])c([H])c([H])c([H])c34)c([H])c2[H])c([H])c1Br)C([H])([H])c1c([H])c([H])c([H])c([H])c1[H]


 43 48  0  0  0  0  0  0  0  0999 V2000
   35.0753  -22.3479   37.5425 C   0  0  0  0  0  0  0  0  0  0  0  0
   34.5923  -23.5405   37.0400 C   0  0  0  0  0  0  0  0  0  0  0  0
   33.3357  -23.9427   37.4116 C   0  0  0  0  0  0  0  0  0  0  0  0
   32.5051  -23.2455   38.2557 C   0  0  0  0  0  0  0  0  0  0  0  0
   33.0330  -22.0392   38.7429 C   0  0  0  0  0  0  0  0  0  0  0  0
   34.2807  -21.6134   38.3908 C   0  0  0  0  0  0  0  0  0  0  0  0
   31.1870  -23.6790   38.6775 C   0  0  0  0  0  0  0  0  0  0  0  0
   30.7997  -24.6317   39.5462 C   0  0  0  0  0  0  0  0  0  0  0  0
   29.4656  -24.6824   39.5693 O   0  0  0  0  0  0  0  0  0  0  0  0
   28.9465  -23.8024   38.7531 C   0  0  0  0  0  0  0  0  0  0  0  0
   27.6502  -23.4706   38.4263 C   0  0  0  0  0  0  0  0  0  0  0  0
   27.3732  -22.4775   37.5111 C   0  0  0  0  0  0  0  0  0  0  0  0
   28.4424  -21.8263   36.9336 C   0  0  0  0  0  0  0  0  0  0  0  0
   29.7567  -22.1540   37.2563 C   0  0  0  0  0  0  0  0  0  0  0  0
   29.9917  -23.1360   38.1600 C   0  0  0  0  0  0  0  0  0  0  0  0
   31.6036  -25.5336   40.3974 C   0  0  0  0  0  0  0  0  0  0  0  0
   32.5960  -24.7779   41.1850 C   0  0  0  0  0  0  0  0  0  0  0  0
   33.9481  -24.8983   41.0999 C   0  0  0  0  0  0  0  0  0  0  0  0
   34.8104  -24.1289   41.8973 C   0  0  0  0  0  0  0  0  0  0  0  0
   34.3124  -23.2210   42.7988 C   0  0  0  0  0  0  0  0  0  0  0  0
   32.9462  -23.0827   42.9016 C   0  0  0  0  0  0  0  0  0  0  0  0
   32.1078  -23.8448   42.1108 C   0  0  0  0  0  0  0  0  0  0  0  0
   38.9525  -20.7928   36.5375 C   0  0  0  0  0  0  0  0  0  0  0  0
   38.7837  -22.1182   36.9603 C   0  0  0  0  0  0  0  0  0  0  0  0
   40.3225  -23.2300   37.0598 Br  0  0  0  0  0  0  0  0  0  0  0  0
   37.5363  -22.6141   37.2842 C   0  0  0  0  0  0  0  0  0  0  0  0
   36.4016  -21.8416   37.2089 C   0  0  0  0  0  0  0  0  0  0  0  0
   36.5554  -20.5282   36.7915 C   0  0  0  0  0  0  0  0  0  0  0  0
   37.8239  -20.0287   36.4664 C   0  0  0  0  0  0  0  0  0  0  0  0
   37.8831  -18.1582   36.0002 Br  0  0  0  0  0  0  0  0  0  0  0  0
   40.1877  -20.2930   36.2214 O   0  0  0  0  0  0  0  0  0  0  0  0
   40.9585  -19.3720   36.9806 C   0  0  0  0  0  0  0  0  0  0  0  0
   41.9608  -18.9096   34.8192 O   0  0  0  0  0  0  0  0  0  0  0  0
   41.6786  -18.5389   35.9926 C   0  0  0  0  0  0  0  0  0  0  0  0
   42.0951  -17.2526   36.3144 O   0  0  0  0  0  0  0  0  0  0  0  0
   42.8067  -16.9994   36.9491 H   0  0  0  0  0  0  0  0  0  0  0  0
   41.9475  -20.0613   37.9058 C   0  0  0  0  0  0  0  0  0  0  0  0
   41.6291  -19.9225   39.3391 C   0  0  0  0  0  0  0  0  0  0  0  0
   40.6058  -20.7193   39.8876 C   0  0  0  0  0  0  0  0  0  0  0  0
   40.3310  -20.6121   41.2370 C   0  0  0  0  0  0  0  0  0  0  0  0
   41.0289  -19.7478   42.0633 C   0  0  0  0  0  0  0  0  0  0  0  0
   42.0246  -18.9863   41.4788 C   0  0  0  0  0  0  0  0  0  0  0  0
   42.3300  -19.0624   40.1423 C   0  0  0  0  0  0  0  0  0  0  0  0
 33 34  2  0  0  0
 34 35  1  0  0  0
 34 32  1  0  0  0
 32 37  1  0  0  0
 37 38  1  0  0  0
 38 39  2  0  0  0
 39 40  1  0  0  0
 40 41  2  0  0  0
 41 42  1  0  0  0
 42 43  2  0  0  0
 32 31  1  0  0  0
 31 23  1  0  0  0
 23 24  2  0  0  0
 24 25  1  0  0  0
 24 26  1  0  0  0
 26 27  2  0  0  0
 27  1  1  0  0  0
  1  2  2  0  0  0
  2  3  1  0  0  0
  3  4  2  0  0  0
  4  7  1  0  0  0
  7  8  2  0  0  0
  8 16  1  0  0  0
 16 17  1  0  0  0
 17 18  2  0  0  0
 18 19  1  0  0  0
 19 20  2  0  0  0
 20 21  1  0  0  0
 21 22  2  0  0  0
  8  9  1  0  0  0
  9 10  1  0  0  0
 10 11  2  0  0  0
 11 12  1  0  0  0
 12 13  2  0  0  0
 13 14  1  0  0  0
 14 15  2  0  0  0
  4  5  1  0  0  0
  5  6  2  0  0  0
 27 28  1  0  0  0
 28 29  2  0  0  0
 29 30  1  0  0  0
 43 38  1  0  0  0
 29 23  1  0  0  0
  6  1  1  0  0  0
 15  7  1  0  0  0
 22 17  1  0  0  0
 15 10  1  0  0  0
 35 36  1  0  0  0
M  END
> <minimizedAffinity>
-4.51509

> <CNNscore>
0.4151445925

> <CNNaffinity>
5.8517584801

> <CNN_VS>
2.4293258190

> <CNNaffinity_variance>
0.2970045507

$$$$
[H]OC(=O)[C@@]([H])(Oc1c(Br)c([H])c(-c2c([H])c([H])c(-c3c(C([H])([H])c4c([H])c([H])c([H])c([H])c4[H])oc4c([H])c([H])c([H])c([H])c34)c([H])c2[H])c([H])c1Br)C([H])([H])c1c([H])c([H])c([H])c([H])c1[H]


 43 48  0  0  0  0  0  0  0  0999 V2000
   38.1085  -21.7751   38.7384 C   0  0  0  0  0  0  0  0  0  0  0  0
   39.3254  -21.9185   38.1008 C   0  0  0  0  0  0  0  0  0  0  0  0
   40.4687  -21.6727   38.8160 C   0  0  0  0  0  0  0  0  0  0  0  0
   40.5029  -21.2897   40.1353 C   0  0  0  0  0  0  0  0  0  0  0  0
   39.2458  -21.1565   40.7462 C   0  0  0  0  0  0  0  0  0  0  0  0
   38.0908  -21.3942   40.0595 C   0  0  0  0  0  0  0  0  0  0  0  0
   41.7065  -20.9983   40.8901 C   0  0  0  0  0  0  0  0  0  0  0  0
   42.5576  -19.9565   40.8396 C   0  0  0  0  0  0  0  0  0  0  0  0
   43.5472  -20.1610   41.7124 O   0  0  0  0  0  0  0  0  0  0  0  0
   43.3912  -21.2954   42.3441 C   0  0  0  0  0  0  0  0  0  0  0  0
   44.1235  -21.9406   43.3161 C   0  0  0  0  0  0  0  0  0  0  0  0
   43.7254  -23.1591   43.8233 C   0  0  0  0  0  0  0  0  0  0  0  0
   42.5651  -23.7101   43.3222 C   0  0  0  0  0  0  0  0  0  0  0  0
   41.8174  -23.0666   42.3394 C   0  0  0  0  0  0  0  0  0  0  0  0
   42.2392  -21.8700   41.8636 C   0  0  0  0  0  0  0  0  0  0  0  0
   42.5212  -18.7309   40.0144 C   0  0  0  0  0  0  0  0  0  0  0  0
   42.9035  -19.0176   38.6187 C   0  0  0  0  0  0  0  0  0  0  0  0
   44.0512  -19.6217   38.2090 C   0  0  0  0  0  0  0  0  0  0  0  0
   44.3220  -19.8503   36.8504 C   0  0  0  0  0  0  0  0  0  0  0  0
   43.4287  -19.4670   35.8807 C   0  0  0  0  0  0  0  0  0  0  0  0
   42.2600  -18.8535   36.2730 C   0  0  0  0  0  0  0  0  0  0  0  0
   42.0043  -18.6349   37.6132 C   0  0  0  0  0  0  0  0  0  0  0  0
   34.3858  -22.5354   36.7322 C   0  0  0  0  0  0  0  0  0  0  0  0
   34.8116  -21.2301   37.0130 C   0  0  0  0  0  0  0  0  0  0  0  0
   33.7029  -19.7877   36.4614 Br  0  0  0  0  0  0  0  0  0  0  0  0
   36.0078  -20.9896   37.6595 C   0  0  0  0  0  0  0  0  0  0  0  0
   36.8398  -22.0087   38.0584 C   0  0  0  0  0  0  0  0  0  0  0  0
   36.4298  -23.3051   37.7861 C   0  0  0  0  0  0  0  0  0  0  0  0
   35.2135  -23.5443   37.1319 C   0  0  0  0  0  0  0  0  0  0  0  0
   34.7401  -25.4014   36.9163 Br  0  0  0  0  0  0  0  0  0  0  0  0
   33.1975  -22.7809   36.0973 O   0  0  0  0  0  0  0  0  0  0  0  0
   31.9853  -23.2243   36.6913 C   0  0  0  0  0  0  0  0  0  0  0  0
   30.6040  -21.6731   35.4359 O   0  0  0  0  0  0  0  0  0  0  0  0
   30.9133  -22.8590   35.7394 C   0  0  0  0  0  0  0  0  0  0  0  0
   30.1634  -23.8394   35.1007 O   0  0  0  0  0  0  0  0  0  0  0  0
   29.5018  -24.4445   35.5125 H   0  0  0  0  0  0  0  0  0  0  0  0
   31.7278  -22.5806   38.0436 C   0  0  0  0  0  0  0  0  0  0  0  0
   32.2721  -23.3391   39.1852 C   0  0  0  0  0  0  0  0  0  0  0  0
   33.1387  -22.6864   40.0829 C   0  0  0  0  0  0  0  0  0  0  0  0
   33.6214  -23.3885   41.1700 C   0  0  0  0  0  0  0  0  0  0  0  0
   33.2803  -24.7100   41.4026 C   0  0  0  0  0  0  0  0  0  0  0  0
   32.4264  -25.3079   40.4934 C   0  0  0  0  0  0  0  0  0  0  0  0
   31.9237  -24.6462   39.4004 C   0  0  0  0  0  0  0  0  0  0  0  0
 33 34  2  0  0  0
 34 35  1  0  0  0
 34 32  1  0  0  0
 32 37  1  0  0  0
 37 38  1  0  0  0
 38 39  2  0  0  0
 39 40  1  0  0  0
 40 41  2  0  0  0
 41 42  1  0  0  0
 42 43  2  0  0  0
 32 31  1  0  0  0
 31 23  1  0  0  0
 23 24  2  0  0  0
 24 25  1  0  0  0
 24 26  1  0  0  0
 26 27  2  0  0  0
 27  1  1  0  0  0
  1  2  2  0  0  0
  2  3  1  0  0  0
  3  4  2  0  0  0
  4  7  1  0  0  0
  7  8  2  0  0  0
  8 16  1  0  0  0
 16 17  1  0  0  0
 17 18  2  0  0  0
 18 19  1  0  0  0
 19 20  2  0  0  0
 20 21  1  0  0  0
 21 22  2  0  0  0
  8  9  1  0  0  0
  9 10  1  0  0  0
 10 11  2  0  0  0
 11 12  1  0  0  0
 12 13  2  0  0  0
 13 14  1  0  0  0
 14 15  2  0  0  0
  4  5  1  0  0  0
  5  6  2  0  0  0
 27 28  1  0  0  0
 28 29  2  0  0  0
 29 30  1  0  0  0
 43 38  1  0  0  0
 29 23  1  0  0  0
  6  1  1  0  0  0
 15  7  1  0  0  0
 22 17  1  0  0  0
 15 10  1  0  0  0
 35 36  1  0  0  0
M  END
> <minimizedAffinity>
-3.98638

> <CNNscore>
0.3982175589

> <CNNaffinity>
5.9317989349

> <CNN_VS>
2.3621463776

> <CNNaffinity_variance>
0.4535096288

$$$$
[H]OC(=O)[C@@]([H])(Oc1c(Br)c([H])c(-c2c([H])c([H])c(-c3c(C([H])([H])c4c([H])c([H])c([H])c([H])c4[H])oc4c([H])c([H])c([H])c([H])c34)c([H])c2[H])c([H])c1Br)C([H])([H])c1c([H])c([H])c([H])c([H])c1[H]


 43 48  0  0  0  0  0  0  0  0999 V2000
   37.2931  -22.6133   37.5040 C   0  0  0  0  0  0  0  0  0  0  0  0
   38.1591  -23.2859   36.6638 C   0  0  0  0  0  0  0  0  0  0  0  0
   39.3917  -22.7366   36.4234 C   0  0  0  0  0  0  0  0  0  0  0  0
   39.8426  -21.5537   36.9583 C   0  0  0  0  0  0  0  0  0  0  0  0
   38.9331  -20.9027   37.8070 C   0  0  0  0  0  0  0  0  0  0  0  0
   37.6991  -21.4253   38.0647 C   0  0  0  0  0  0  0  0  0  0  0  0
   41.1330  -20.9509   36.6850 C   0  0  0  0  0  0  0  0  0  0  0  0
   42.3200  -21.0692   37.3089 C   0  0  0  0  0  0  0  0  0  0  0  0
   43.2103  -20.2803   36.7024 O   0  0  0  0  0  0  0  0  0  0  0  0
   42.6671  -19.6414   35.6990 C   0  0  0  0  0  0  0  0  0  0  0  0
   43.1556  -18.7344   34.7845 C   0  0  0  0  0  0  0  0  0  0  0  0
   42.3485  -18.2008   33.8026 C   0  0  0  0  0  0  0  0  0  0  0  0
   41.0319  -18.6085   33.7679 C   0  0  0  0  0  0  0  0  0  0  0  0
   40.5276  -19.5244   34.6876 C   0  0  0  0  0  0  0  0  0  0  0  0
   41.3499  -20.0280   35.6397 C   0  0  0  0  0  0  0  0  0  0  0  0
   42.7121  -21.8959   38.4696 C   0  0  0  0  0  0  0  0  0  0  0  0
   42.8012  -21.0820   39.6968 C   0  0  0  0  0  0  0  0  0  0  0  0
   43.7406  -21.2022   40.6729 C   0  0  0  0  0  0  0  0  0  0  0  0
   43.7382  -20.3746   41.8072 C   0  0  0  0  0  0  0  0  0  0  0  0
   42.7775  -19.4074   41.9704 C   0  0  0  0  0  0  0  0  0  0  0  0
   41.8164  -19.2681   40.9942 C   0  0  0  0  0  0  0  0  0  0  0  0
   41.8297  -20.0879   39.8820 C   0  0  0  0  0  0  0  0  0  0  0  0
   33.3667  -24.0584   38.4815 C   0  0  0  0  0  0  0  0  0  0  0  0
   34.0440  -24.5000   37.3370 C   0  0  0  0  0  0  0  0  0  0  0  0
   33.1858  -25.7822   36.2264 Br  0  0  0  0  0  0  0  0  0  0  0  0
   35.3052  -24.0320   37.0250 C   0  0  0  0  0  0  0  0  0  0  0  0
   35.9599  -23.1163   37.8141 C   0  0  0  0  0  0  0  0  0  0  0  0
   35.3002  -22.6717   38.9499 C   0  0  0  0  0  0  0  0  0  0  0  0
   34.0191  -23.1477   39.2609 C   0  0  0  0  0  0  0  0  0  0  0  0
   33.1976  -22.3586   40.8172 Br  0  0  0  0  0  0  0  0  0  0  0  0
   32.1131  -24.5135   38.7930 O   0  0  0  0  0  0  0  0  0  0  0  0
   30.8929  -23.7916   38.7005 C   0  0  0  0  0  0  0  0  0  0  0  0
   28.7687  -24.7781   39.3366 O   0  0  0  0  0  0  0  0  0  0  0  0
   29.9562  -24.4634   39.6279 C   0  0  0  0  0  0  0  0  0  0  0  0
   30.3499  -24.8009   40.9173 O   0  0  0  0  0  0  0  0  0  0  0  0
   30.5405  -24.1823   41.6618 H   0  0  0  0  0  0  0  0  0  0  0  0
   30.3228  -23.7859   37.2918 C   0  0  0  0  0  0  0  0  0  0  0  0
   30.4002  -22.4776   36.6158 C   0  0  0  0  0  0  0  0  0  0  0  0
   29.2165  -21.8987   36.1192 C   0  0  0  0  0  0  0  0  0  0  0  0
   29.2857  -20.6582   35.5157 C   0  0  0  0  0  0  0  0  0  0  0  0
   30.4796  -19.9695   35.3846 C   0  0  0  0  0  0  0  0  0  0  0  0
   31.6149  -20.5787   35.8878 C   0  0  0  0  0  0  0  0  0  0  0  0
   31.5901  -21.8098   36.4950 C   0  0  0  0  0  0  0  0  0  0  0  0
 33 34  2  0  0  0
 34 35  1  0  0  0
 34 32  1  0  0  0
 32 37  1  0  0  0
 37 38  1  0  0  0
 38 39  2  0  0  0
 39 40  1  0  0  0
 40 41  2  0  0  0
 41 42  1  0  0  0
 42 43  2  0  0  0
 32 31  1  0  0  0
 31 23  1  0  0  0
 23 24  2  0  0  0
 24 25  1  0  0  0
 24 26  1  0  0  0
 26 27  2  0  0  0
 27  1  1  0  0  0
  1  2  2  0  0  0
  2  3  1  0  0  0
  3  4  2  0  0  0
  4  7  1  0  0  0
  7  8  2  0  0  0
  8 16  1  0  0  0
 16 17  1  0  0  0
 17 18  2  0  0  0
 18 19  1  0  0  0
 19 20  2  0  0  0
 20 21  1  0  0  0
 21 22  2  0  0  0
  8  9  1  0  0  0
  9 10  1  0  0  0
 10 11  2  0  0  0
 11 12  1  0  0  0
 12 13  2  0  0  0
 13 14  1  0  0  0
 14 15  2  0  0  0
  4  5  1  0  0  0
  5  6  2  0  0  0
 27 28  1  0  0  0
 28 29  2  0  0  0
 29 30  1  0  0  0
 43 38  1  0  0  0
 29 23  1  0  0  0
  6  1  1  0  0  0
 15  7  1  0  0  0
 22 17  1  0  0  0
 15 10  1  0  0  0
 35 36  1  0  0  0
M  END
> <minimizedAffinity>
-4.50841

> <CNNscore>
0.3679524660

> <CNNaffinity>
5.7582197189

> <CNN_VS>
2.1187510490

> <CNNaffinity_variance>
0.1027735919

$$$$
[H]OC(=O)[C@@]([H])(Oc1c(Br)c([H])c(-c2c([H])c([H])c(-c3c(C([H])([H])c4c([H])c([H])c([H])c([H])c4[H])oc4c([H])c([H])c([H])c([H])c34)c([H])c2[H])c([H])c1Br)C([H])([H])c1c([H])c([H])c([H])c([H])c1[H]


 43 48  0  0  0  0  0  0  0  0999 V2000
   37.2174  -21.2262   37.3112 C   0  0  0  0  0  0  0  0  0  0  0  0
   37.4791  -19.8848   37.1105 C   0  0  0  0  0  0  0  0  0  0  0  0
   38.7477  -19.4253   37.3524 C   0  0  0  0  0  0  0  0  0  0  0  0
   39.7957  -20.2021   37.7845 C   0  0  0  0  0  0  0  0  0  0  0  0
   39.4882  -21.5587   37.9750 C   0  0  0  0  0  0  0  0  0  0  0  0
   38.2345  -22.0449   37.7426 C   0  0  0  0  0  0  0  0  0  0  0  0
   41.1322  -19.7179   38.0717 C   0  0  0  0  0  0  0  0  0  0  0  0
   42.1497  -19.3799   37.2577 C   0  0  0  0  0  0  0  0  0  0  0  0
   43.2013  -19.0259   38.0005 O   0  0  0  0  0  0  0  0  0  0  0  0
   42.9275  -19.1124   39.2763 C   0  0  0  0  0  0  0  0  0  0  0  0
   43.6600  -18.8632   40.4159 C   0  0  0  0  0  0  0  0  0  0  0  0
   43.1165  -19.0394   41.6705 C   0  0  0  0  0  0  0  0  0  0  0  0
   41.8103  -19.4746   41.7442 C   0  0  0  0  0  0  0  0  0  0  0  0
   41.0609  -19.7299   40.5987 C   0  0  0  0  0  0  0  0  0  0  0  0
   41.6279  -19.5462   39.3817 C   0  0  0  0  0  0  0  0  0  0  0  0
   42.2254  -19.3527   35.7820 C   0  0  0  0  0  0  0  0  0  0  0  0
   41.6784  -20.5922   35.1982 C   0  0  0  0  0  0  0  0  0  0  0  0
   40.5530  -20.6941   34.4412 C   0  0  0  0  0  0  0  0  0  0  0  0
   40.1151  -21.9262   33.9299 C   0  0  0  0  0  0  0  0  0  0  0  0
   40.8149  -23.0806   34.1802 C   0  0  0  0  0  0  0  0  0  0  0  0
   41.9575  -23.0007   34.9445 C   0  0  0  0  0  0  0  0  0  0  0  0
   42.3790  -21.7822   35.4413 C   0  0  0  0  0  0  0  0  0  0  0  0
   33.3591  -22.9995   36.6555 C   0  0  0  0  0  0  0  0  0  0  0  0
   33.5564  -21.6165   36.5442 C   0  0  0  0  0  0  0  0  0  0  0  0
   32.0670  -20.5340   36.0710 Br  0  0  0  0  0  0  0  0  0  0  0  0
   34.7975  -21.0499   36.7574 C   0  0  0  0  0  0  0  0  0  0  0  0
   35.8980  -21.8052   37.0863 C   0  0  0  0  0  0  0  0  0  0  0  0
   35.7159  -23.1753   37.1992 C   0  0  0  0  0  0  0  0  0  0  0  0
   34.4537  -23.7454   36.9844 C   0  0  0  0  0  0  0  0  0  0  0  0
   34.3438  -25.6486   37.2766 Br  0  0  0  0  0  0  0  0  0  0  0  0
   32.1294  -23.5669   36.4519 O   0  0  0  0  0  0  0  0  0  0  0  0
   31.2058  -23.9878   37.4461 C   0  0  0  0  0  0  0  0  0  0  0  0
   29.6651  -23.5316   35.6272 O   0  0  0  0  0  0  0  0  0  0  0  0
   29.8715  -23.9207   36.8105 C   0  0  0  0  0  0  0  0  0  0  0  0
   28.7307  -24.3010   37.5072 O   0  0  0  0  0  0  0  0  0  0  0  0
   28.3178  -23.8340   38.2719 H   0  0  0  0  0  0  0  0  0  0  0  0
   31.2411  -23.1095   38.6857 C   0  0  0  0  0  0  0  0  0  0  0  0
   32.1214  -23.6134   39.7562 C   0  0  0  0  0  0  0  0  0  0  0  0
   31.9678  -24.9437   40.1918 C   0  0  0  0  0  0  0  0  0  0  0  0
   32.8149  -25.4243   41.1712 C   0  0  0  0  0  0  0  0  0  0  0  0
   33.8064  -24.6401   41.7358 C   0  0  0  0  0  0  0  0  0  0  0  0
   33.9183  -23.3407   41.2754 C   0  0  0  0  0  0  0  0  0  0  0  0
   33.0976  -22.8238   40.3036 C   0  0  0  0  0  0  0  0  0  0  0  0
 33 34  2  0  0  0
 34 35  1  0  0  0
 34 32  1  0  0  0
 32 37  1  0  0  0
 37 38  1  0  0  0
 38 39  2  0  0  0
 39 40  1  0  0  0
 40 41  2  0  0  0
 41 42  1  0  0  0
 42 43  2  0  0  0
 32 31  1  0  0  0
 31 23  1  0  0  0
 23 24  2  0  0  0
 24 25  1  0  0  0
 24 26  1  0  0  0
 26 27  2  0  0  0
 27  1  1  0  0  0
  1  2  2  0  0  0
  2  3  1  0  0  0
  3  4  2  0  0  0
  4  7  1  0  0  0
  7  8  2  0  0  0
  8 16  1  0  0  0
 16 17  1  0  0  0
 17 18  2  0  0  0
 18 19  1  0  0  0
 19 20  2  0  0  0
 20 21  1  0  0  0
 21 22  2  0  0  0
  8  9  1  0  0  0
  9 10  1  0  0  0
 10 11  2  0  0  0
 11 12  1  0  0  0
 12 13  2  0  0  0
 13 14  1  0  0  0
 14 15  2  0  0  0
  4  5  1  0  0  0
  5  6  2  0  0  0
 27 28  1  0  0  0
 28 29  2  0  0  0
 29 30  1  0  0  0
 43 38  1  0  0  0
 29 23  1  0  0  0
  6  1  1  0  0  0
 15  7  1  0  0  0
 22 17  1  0  0  0
 15 10  1  0  0  0
 35 36  1  0  0  0
M  END
> <minimizedAffinity>
-4.28944

> <CNNscore>
0.3422480226

> <CNNaffinity>
5.8334007263

> <CNN_VS>
1.9964698553

> <CNNaffinity_variance>
0.5466668606

$$$$
[H]OC(=O)[C@@]([H])(Oc1c(Br)c([H])c(-c2c([H])c([H])c(-c3c(C([H])([H])c4c([H])c([H])c([H])c([H])c4[H])oc4c([H])c([H])c([H])c([H])c34)c([H])c2[H])c([H])c1Br)C([H])([H])c1c([H])c([H])c([H])c([H])c1[H]


 43 48  0  0  0  0  0  0  0  0999 V2000
   36.5064  -21.2792   37.1497 C   0  0  0  0  0  0  0  0  0  0  0  0
   37.3302  -22.3878   37.1684 C   0  0  0  0  0  0  0  0  0  0  0  0
   38.6836  -22.1955   37.0674 C   0  0  0  0  0  0  0  0  0  0  0  0
   39.2965  -20.9714   36.9475 C   0  0  0  0  0  0  0  0  0  0  0  0
   38.4243  -19.8713   36.9337 C   0  0  0  0  0  0  0  0  0  0  0  0
   37.0728  -20.0317   37.0322 C   0  0  0  0  0  0  0  0  0  0  0  0
   40.7249  -20.7617   36.8097 C   0  0  0  0  0  0  0  0  0  0  0  0
   41.7677  -21.2609   37.4994 C   0  0  0  0  0  0  0  0  0  0  0  0
   42.8976  -20.7365   37.0185 O   0  0  0  0  0  0  0  0  0  0  0  0
   42.6523  -19.9092   36.0360 C   0  0  0  0  0  0  0  0  0  0  0  0
   43.4603  -19.1360   35.2318 C   0  0  0  0  0  0  0  0  0  0  0  0
   42.9310  -18.3324   34.2445 C   0  0  0  0  0  0  0  0  0  0  0  0
   41.5609  -18.3305   34.0900 C   0  0  0  0  0  0  0  0  0  0  0  0
   40.7349  -19.1080   34.8977 C   0  0  0  0  0  0  0  0  0  0  0  0
   41.2899  -19.8857   35.8586 C   0  0  0  0  0  0  0  0  0  0  0  0
   41.8010  -22.2316   38.6132 C   0  0  0  0  0  0  0  0  0  0  0  0
   41.6618  -21.5524   39.9154 C   0  0  0  0  0  0  0  0  0  0  0  0
   41.2972  -20.2565   40.1095 C   0  0  0  0  0  0  0  0  0  0  0  0
   41.1931  -19.7026   41.3955 C   0  0  0  0  0  0  0  0  0  0  0  0
   41.4591  -20.4581   42.5107 C   0  0  0  0  0  0  0  0  0  0  0  0
   41.8299  -21.7728   42.3374 C   0  0  0  0  0  0  0  0  0  0  0  0
   41.9281  -22.3069   41.0669 C   0  0  0  0  0  0  0  0  0  0  0  0
   32.2238  -21.5296   37.3898 C   0  0  0  0  0  0  0  0  0  0  0  0
   33.0486  -22.4014   38.1132 C   0  0  0  0  0  0  0  0  0  0  0  0
   32.2210  -23.6973   39.2312 Br  0  0  0  0  0  0  0  0  0  0  0  0
   34.4247  -22.3192   38.0322 C   0  0  0  0  0  0  0  0  0  0  0  0
   35.0551  -21.3847   37.2453 C   0  0  0  0  0  0  0  0  0  0  0  0
   34.2497  -20.5158   36.5246 C   0  0  0  0  0  0  0  0  0  0  0  0
   32.8535  -20.6049   36.6081 C   0  0  0  0  0  0  0  0  0  0  0  0
   31.8766  -19.3925   35.4701 Br  0  0  0  0  0  0  0  0  0  0  0  0
   30.8585  -21.6103   37.4605 O   0  0  0  0  0  0  0  0  0  0  0  0
   29.9696  -22.0063   36.4253 C   0  0  0  0  0  0  0  0  0  0  0  0
   27.6184  -21.9262   37.0213 O   0  0  0  0  0  0  0  0  0  0  0  0
   28.6870  -21.3280   36.7143 C   0  0  0  0  0  0  0  0  0  0  0  0
   28.5871  -19.9427   36.6657 O   0  0  0  0  0  0  0  0  0  0  0  0
   28.6335  -19.3710   35.8630 H   0  0  0  0  0  0  0  0  0  0  0  0
   29.7671  -23.5115   36.3732 C   0  0  0  0  0  0  0  0  0  0  0  0
   30.2127  -24.1362   35.1138 C   0  0  0  0  0  0  0  0  0  0  0  0
   31.2407  -23.5183   34.3759 C   0  0  0  0  0  0  0  0  0  0  0  0
   31.6798  -24.1220   33.2139 C   0  0  0  0  0  0  0  0  0  0  0  0
   31.1414  -25.3119   32.7542 C   0  0  0  0  0  0  0  0  0  0  0  0
   30.1344  -25.8805   33.5131 C   0  0  0  0  0  0  0  0  0  0  0  0
   29.6691  -25.3139   34.6739 C   0  0  0  0  0  0  0  0  0  0  0  0
 33 34  2  0  0  0
 34 35  1  0  0  0
 34 32  1  0  0  0
 32 37  1  0  0  0
 37 38  1  0  0  0
 38 39  2  0  0  0
 39 40  1  0  0  0
 40 41  2  0  0  0
 41 42  1  0  0  0
 42 43  2  0  0  0
 32 31  1  0  0  0
 31 23  1  0  0  0
 23 24  2  0  0  0
 24 25  1  0  0  0
 24 26  1  0  0  0
 26 27  2  0  0  0
 27  1  1  0  0  0
  1  2  2  0  0  0
  2  3  1  0  0  0
  3  4  2  0  0  0
  4  7  1  0  0  0
  7  8  2  0  0  0
  8 16  1  0  0  0
 16 17  1  0  0  0
 17 18  2  0  0  0
 18 19  1  0  0  0
 19 20  2  0  0  0
 20 21  1  0  0  0
 21 22  2  0  0  0
  8  9  1  0  0  0
  9 10  1  0  0  0
 10 11  2  0  0  0
 11 12  1  0  0  0
 12 13  2  0  0  0
 13 14  1  0  0  0
 14 15  2  0  0  0
  4  5  1  0  0  0
  5  6  2  0  0  0
 27 28  1  0  0  0
 28 29  2  0  0  0
 29 30  1  0  0  0
 43 38  1  0  0  0
 29 23  1  0  0  0
  6  1  1  0  0  0
 15  7  1  0  0  0
 22 17  1  0  0  0
 15 10  1  0  0  0
 35 36  1  0  0  0
M  END
> <minimizedAffinity>
-5.55328

> <CNNscore>
0.3275522888

> <CNNaffinity>
5.7733464241

> <CNN_VS>
1.8910728693

> <CNNaffinity_variance>
0.1911305487

$$$$
[H]OC(=O)[C@@]([H])(Oc1c(Br)c([H])c(-c2c([H])c([H])c(-c3c(C([H])([H])c4c([H])c([H])c([H])c([H])c4[H])oc4c([H])c([H])c([H])c([H])c34)c([H])c2[H])c([H])c1Br)C([H])([H])c1c([H])c([H])c([H])c([H])c1[H]


 43 48  0  0  0  0  0  0  0  0999 V2000
   35.9942  -21.9325   37.4142 C   0  0  0  0  0  0  0  0  0  0  0  0
   37.0248  -22.8516   37.3798 C   0  0  0  0  0  0  0  0  0  0  0  0
   38.2743  -22.4443   37.7694 C   0  0  0  0  0  0  0  0  0  0  0  0
   38.5894  -21.1772   38.1980 C   0  0  0  0  0  0  0  0  0  0  0  0
   37.5143  -20.2746   38.2192 C   0  0  0  0  0  0  0  0  0  0  0  0
   36.2596  -20.6513   37.8369 C   0  0  0  0  0  0  0  0  0  0  0  0
   39.9144  -20.7304   38.5827 C   0  0  0  0  0  0  0  0  0  0  0  0
   40.6732  -21.0186   39.6567 C   0  0  0  0  0  0  0  0  0  0  0  0
   41.8120  -20.3252   39.5830 O   0  0  0  0  0  0  0  0  0  0  0  0
   41.8452  -19.5873   38.5039 C   0  0  0  0  0  0  0  0  0  0  0  0
   42.7782  -18.7156   37.9874 C   0  0  0  0  0  0  0  0  0  0  0  0
   42.5577  -18.0499   36.8005 C   0  0  0  0  0  0  0  0  0  0  0  0
   41.3674  -18.2886   36.1470 C   0  0  0  0  0  0  0  0  0  0  0  0
   40.4171  -19.1675   36.6604 C   0  0  0  0  0  0  0  0  0  0  0  0
   40.6674  -19.8042   37.8301 C   0  0  0  0  0  0  0  0  0  0  0  0
   40.4171  -21.9296   40.7919 C   0  0  0  0  0  0  0  0  0  0  0  0
   39.4849  -21.3231   41.7611 C   0  0  0  0  0  0  0  0  0  0  0  0
   39.7995  -20.3948   42.7042 C   0  0  0  0  0  0  0  0  0  0  0  0
   38.8344  -19.8775   43.5831 C   0  0  0  0  0  0  0  0  0  0  0  0
   37.5284  -20.2962   43.5195 C   0  0  0  0  0  0  0  0  0  0  0  0
   37.1875  -21.2355   42.5721 C   0  0  0  0  0  0  0  0  0  0  0  0
   38.1459  -21.7365   41.7121 C   0  0  0  0  0  0  0  0  0  0  0  0
   32.0025  -23.0027   36.2386 C   0  0  0  0  0  0  0  0  0  0  0  0
   32.4332  -21.6691   36.2336 C   0  0  0  0  0  0  0  0  0  0  0  0
   31.2048  -20.3327   35.6688 Br  0  0  0  0  0  0  0  0  0  0  0  0
   33.7163  -21.3287   36.6139 C   0  0  0  0  0  0  0  0  0  0  0  0
   34.6337  -22.2714   37.0132 C   0  0  0  0  0  0  0  0  0  0  0  0
   34.2197  -23.5949   37.0222 C   0  0  0  0  0  0  0  0  0  0  0  0
   32.9155  -23.9352   36.6379 C   0  0  0  0  0  0  0  0  0  0  0  0
   32.4649  -25.8033   36.8003 Br  0  0  0  0  0  0  0  0  0  0  0  0
   30.7293  -23.3462   35.8691 O   0  0  0  0  0  0  0  0  0  0  0  0
   29.6508  -23.6865   36.7292 C   0  0  0  0  0  0  0  0  0  0  0  0
   27.2743  -23.7445   36.2405 O   0  0  0  0  0  0  0  0  0  0  0  0
   28.4221  -23.2673   36.0197 C   0  0  0  0  0  0  0  0  0  0  0  0
   28.4668  -22.2851   35.0374 O   0  0  0  0  0  0  0  0  0  0  0  0
   28.8801  -22.3558   34.1444 H   0  0  0  0  0  0  0  0  0  0  0  0
   29.7392  -22.9941   38.0791 C   0  0  0  0  0  0  0  0  0  0  0  0
   30.1314  -23.8837   39.1879 C   0  0  0  0  0  0  0  0  0  0  0  0
   31.2021  -23.5015   40.0189 C   0  0  0  0  0  0  0  0  0  0  0  0
   31.5470  -24.3195   41.0771 C   0  0  0  0  0  0  0  0  0  0  0  0
   30.8742  -25.4998   41.3440 C   0  0  0  0  0  0  0  0  0  0  0  0
   29.8300  -25.8326   40.5003 C   0  0  0  0  0  0  0  0  0  0  0  0
   29.4545  -25.0479   39.4380 C   0  0  0  0  0  0  0  0  0  0  0  0
 33 34  2  0  0  0
 34 35  1  0  0  0
 34 32  1  0  0  0
 32 37  1  0  0  0
 37 38  1  0  0  0
 38 39  2  0  0  0
 39 40  1  0  0  0
 40 41  2  0  0  0
 41 42  1  0  0  0
 42 43  2  0  0  0
 32 31  1  0  0  0
 31 23  1  0  0  0
 23 24  2  0  0  0
 24 25  1  0  0  0
 24 26  1  0  0  0
 26 27  2  0  0  0
 27  1  1  0  0  0
  1  2  2  0  0  0
  2  3  1  0  0  0
  3  4  2  0  0  0
  4  7  1  0  0  0
  7  8  2  0  0  0
  8 16  1  0  0  0
 16 17  1  0  0  0
 17 18  2  0  0  0
 18 19  1  0  0  0
 19 20  2  0  0  0
 20 21  1  0  0  0
 21 22  2  0  0  0
  8  9  1  0  0  0
  9 10  1  0  0  0
 10 11  2  0  0  0
 11 12  1  0  0  0
 12 13  2  0  0  0
 13 14  1  0  0  0
 14 15  2  0  0  0
  4  5  1  0  0  0
  5  6  2  0  0  0
 27 28  1  0  0  0
 28 29  2  0  0  0
 29 30  1  0  0  0
 43 38  1  0  0  0
 29 23  1  0  0  0
  6  1  1  0  0  0
 15  7  1  0  0  0
 22 17  1  0  0  0
 15 10  1  0  0  0
 35 36  1  0  0  0
M  END
> <minimizedAffinity>
-4.78547

> <CNNscore>
0.3249071836

> <CNNaffinity>
5.8661088943

> <CNN_VS>
1.9059408903

> <CNNaffinity_variance>
0.4422055781

$$$$
[H]OC(=O)[C@@]([H])(Oc1c(Br)c([H])c(-c2c([H])c([H])c(-c3c(C([H])([H])c4c([H])c([H])c([H])c([H])c4[H])oc4c([H])c([H])c([H])c([H])c34)c([H])c2[H])c([H])c1Br)C([H])([H])c1c([H])c([H])c([H])c([H])c1[H]


 43 48  0  0  0  0  0  0  0  0999 V2000
   36.9309  -22.2868   38.1261 C   0  0  0  0  0  0  0  0  0  0  0  0
   38.1349  -22.9410   38.3012 C   0  0  0  0  0  0  0  0  0  0  0  0
   39.2938  -22.2274   38.1380 C   0  0  0  0  0  0  0  0  0  0  0  0
   39.3560  -20.8944   37.8096 C   0  0  0  0  0  0  0  0  0  0  0  0
   38.1113  -20.2670   37.6418 C   0  0  0  0  0  0  0  0  0  0  0  0
   36.9412  -20.9517   37.7975 C   0  0  0  0  0  0  0  0  0  0  0  0
   40.5777  -20.1401   37.6054 C   0  0  0  0  0  0  0  0  0  0  0  0
   41.1995  -19.7420   36.4796 C   0  0  0  0  0  0  0  0  0  0  0  0
   42.3242  -19.1015   36.8077 O   0  0  0  0  0  0  0  0  0  0  0  0
   42.4783  -19.0545   38.1055 C   0  0  0  0  0  0  0  0  0  0  0  0
   43.4509  -18.5175   38.9197 C   0  0  0  0  0  0  0  0  0  0  0  0
   43.3680  -18.6097   40.2927 C   0  0  0  0  0  0  0  0  0  0  0  0
   42.2739  -19.2597   40.8232 C   0  0  0  0  0  0  0  0  0  0  0  0
   41.2851  -19.8064   40.0094 C   0  0  0  0  0  0  0  0  0  0  0  0
   41.3997  -19.6974   38.6636 C   0  0  0  0  0  0  0  0  0  0  0  0
   40.8136  -19.9110   35.0631 C   0  0  0  0  0  0  0  0  0  0  0  0
   40.4884  -21.3187   34.7645 C   0  0  0  0  0  0  0  0  0  0  0  0
   39.2622  -21.8066   34.4356 C   0  0  0  0  0  0  0  0  0  0  0  0
   39.0562  -23.1695   34.1682 C   0  0  0  0  0  0  0  0  0  0  0  0
   40.0961  -24.0638   34.2311 C   0  0  0  0  0  0  0  0  0  0  0  0
   41.3465  -23.5916   34.5622 C   0  0  0  0  0  0  0  0  0  0  0  0
   41.5369  -22.2479   34.8223 C   0  0  0  0  0  0  0  0  0  0  0  0
   33.1420  -24.2507   38.6246 C   0  0  0  0  0  0  0  0  0  0  0  0
   33.9517  -24.4973   37.5078 C   0  0  0  0  0  0  0  0  0  0  0  0
   33.3388  -25.7494   36.2153 Br  0  0  0  0  0  0  0  0  0  0  0  0
   35.1681  -23.8629   37.3500 C   0  0  0  0  0  0  0  0  0  0  0  0
   35.6475  -22.9636   38.2726 C   0  0  0  0  0  0  0  0  0  0  0  0
   34.8555  -22.7112   39.3826 C   0  0  0  0  0  0  0  0  0  0  0  0
   33.6205  -23.3556   39.5370 C   0  0  0  0  0  0  0  0  0  0  0  0
   32.5955  -22.8227   41.0813 Br  0  0  0  0  0  0  0  0  0  0  0  0
   31.9317  -24.8714   38.7836 O   0  0  0  0  0  0  0  0  0  0  0  0
   30.6448  -24.2975   38.6011 C   0  0  0  0  0  0  0  0  0  0  0  0
   30.0759  -25.8780   40.3528 O   0  0  0  0  0  0  0  0  0  0  0  0
   29.7179  -25.1225   39.4067 C   0  0  0  0  0  0  0  0  0  0  0  0
   28.3506  -25.1063   39.1582 O   0  0  0  0  0  0  0  0  0  0  0  0
   27.8855  -25.4714   38.3685 H   0  0  0  0  0  0  0  0  0  0  0  0
   30.2098  -24.2898   37.1450 C   0  0  0  0  0  0  0  0  0  0  0  0
   30.1910  -22.9500   36.5289 C   0  0  0  0  0  0  0  0  0  0  0  0
   28.9798  -22.2323   36.5014 C   0  0  0  0  0  0  0  0  0  0  0  0
   28.9710  -20.9643   35.9538 C   0  0  0  0  0  0  0  0  0  0  0  0
   30.1130  -20.3801   35.4329 C   0  0  0  0  0  0  0  0  0  0  0  0
   31.2780  -21.1239   35.4827 C   0  0  0  0  0  0  0  0  0  0  0  0
   31.3305  -22.3870   36.0184 C   0  0  0  0  0  0  0  0  0  0  0  0
 33 34  2  0  0  0
 34 35  1  0  0  0
 34 32  1  0  0  0
 32 37  1  0  0  0
 37 38  1  0  0  0
 38 39  2  0  0  0
 39 40  1  0  0  0
 40 41  2  0  0  0
 41 42  1  0  0  0
 42 43  2  0  0  0
 32 31  1  0  0  0
 31 23  1  0  0  0
 23 24  2  0  0  0
 24 25  1  0  0  0
 24 26  1  0  0  0
 26 27  2  0  0  0
 27  1  1  0  0  0
  1  2  2  0  0  0
  2  3  1  0  0  0
  3  4  2  0  0  0
  4  7  1  0  0  0
  7  8  2  0  0  0
  8 16  1  0  0  0
 16 17  1  0  0  0
 17 18  2  0  0  0
 18 19  1  0  0  0
 19 20  2  0  0  0
 20 21  1  0  0  0
 21 22  2  0  0  0
  8  9  1  0  0  0
  9 10  1  0  0  0
 10 11  2  0  0  0
 11 12  1  0  0  0
 12 13  2  0  0  0
 13 14  1  0  0  0
 14 15  2  0  0  0
  4  5  1  0  0  0
  5  6  2  0  0  0
 27 28  1  0  0  0
 28 29  2  0  0  0
 29 30  1  0  0  0
 43 38  1  0  0  0
 29 23  1  0  0  0
  6  1  1  0  0  0
 15  7  1  0  0  0
 22 17  1  0  0  0
 15 10  1  0  0  0
 35 36  1  0  0  0
M  END
> <minimizedAffinity>
-4.87946

> <CNNscore>
0.2927839458

> <CNNaffinity>
5.6114239693

> <CNN_VS>
1.6429347992

> <CNNaffinity_variance>
0.1578596383

$$$$
[H]OC(=O)[C@@]([H])(Oc1c(Br)c([H])c(-c2c([H])c([H])c(-c3c(C([H])([H])c4c([H])c([H])c([H])c([H])c4[H])oc4c([H])c([H])c([H])c([H])c34)c([H])c2[H])c([H])c1Br)C([H])([H])c1c([H])c([H])c([H])c([H])c1[H]


 43 48  0  0  0  0  0  0  0  0999 V2000
   38.8581  -21.7264   37.8367 C   0  0  0  0  0  0  0  0  0  0  0  0
   39.9123  -22.4447   37.3068 C   0  0  0  0  0  0  0  0  0  0  0  0
   41.1319  -21.8282   37.1990 C   0  0  0  0  0  0  0  0  0  0  0  0
   41.3947  -20.5345   37.5810 C   0  0  0  0  0  0  0  0  0  0  0  0
   40.2975  -19.8402   38.1151 C   0  0  0  0  0  0  0  0  0  0  0  0
   39.0717  -20.4276   38.2344 C   0  0  0  0  0  0  0  0  0  0  0  0
   42.6739  -19.8655   37.4421 C   0  0  0  0  0  0  0  0  0  0  0  0
   43.7710  -19.8732   38.2223 C   0  0  0  0  0  0  0  0  0  0  0  0
   44.6887  -19.0626   37.6897 O   0  0  0  0  0  0  0  0  0  0  0  0
   44.2502  -18.5154   36.5860 C   0  0  0  0  0  0  0  0  0  0  0  0
   44.8052  -17.6298   35.6887 C   0  0  0  0  0  0  0  0  0  0  0  0
   44.1087  -17.2032   34.5781 C   0  0  0  0  0  0  0  0  0  0  0  0
   42.8339  -17.6962   34.3967 C   0  0  0  0  0  0  0  0  0  0  0  0
   42.2631  -18.5914   35.2976 C   0  0  0  0  0  0  0  0  0  0  0  0
   42.9770  -18.9887   36.3787 C   0  0  0  0  0  0  0  0  0  0  0  0
   44.0494  -20.6087   39.4736 C   0  0  0  0  0  0  0  0  0  0  0  0
   43.0147  -20.3403   40.4902 C   0  0  0  0  0  0  0  0  0  0  0  0
   42.7622  -19.1415   41.0811 C   0  0  0  0  0  0  0  0  0  0  0  0
   41.7497  -18.9896   42.0419 C   0  0  0  0  0  0  0  0  0  0  0  0
   40.9737  -20.0569   42.4211 C   0  0  0  0  0  0  0  0  0  0  0  0
   41.2120  -21.2802   41.8356 C   0  0  0  0  0  0  0  0  0  0  0  0
   42.2107  -21.4171   40.8905 C   0  0  0  0  0  0  0  0  0  0  0  0
   34.9127  -23.3552   38.3284 C   0  0  0  0  0  0  0  0  0  0  0  0
   35.8313  -23.9220   37.4347 C   0  0  0  0  0  0  0  0  0  0  0  0
   35.2936  -25.4568   36.4501 Br  0  0  0  0  0  0  0  0  0  0  0  0
   37.0979  -23.3948   37.2779 C   0  0  0  0  0  0  0  0  0  0  0  0
   37.5236  -22.2953   37.9850 C   0  0  0  0  0  0  0  0  0  0  0  0
   36.6238  -21.7253   38.8729 C   0  0  0  0  0  0  0  0  0  0  0  0
   35.3384  -22.2625   39.0266 C   0  0  0  0  0  0  0  0  0  0  0  0
   34.1750  -21.2973   40.2241 Br  0  0  0  0  0  0  0  0  0  0  0  0
   33.6529  -23.8692   38.4835 O   0  0  0  0  0  0  0  0  0  0  0  0
   32.4337  -23.2993   38.0278 C   0  0  0  0  0  0  0  0  0  0  0  0
   30.1987  -24.2385   38.1394 O   0  0  0  0  0  0  0  0  0  0  0  0
   31.3574  -24.1191   38.6263 C   0  0  0  0  0  0  0  0  0  0  0  0
   31.5739  -24.8324   39.7993 O   0  0  0  0  0  0  0  0  0  0  0  0
   31.7060  -24.4625   40.7043 H   0  0  0  0  0  0  0  0  0  0  0  0
   32.3166  -23.3049   36.5127 C   0  0  0  0  0  0  0  0  0  0  0  0
   32.4395  -21.9719   35.8940 C   0  0  0  0  0  0  0  0  0  0  0  0
   32.7576  -20.8705   36.7116 C   0  0  0  0  0  0  0  0  0  0  0  0
   32.9049  -19.6284   36.1257 C   0  0  0  0  0  0  0  0  0  0  0  0
   32.7493  -19.4344   34.7637 C   0  0  0  0  0  0  0  0  0  0  0  0
   32.4372  -20.5462   34.0023 C   0  0  0  0  0  0  0  0  0  0  0  0
   32.2825  -21.7981   34.5444 C   0  0  0  0  0  0  0  0  0  0  0  0
 33 34  2  0  0  0
 34 35  1  0  0  0
 34 32  1  0  0  0
 32 37  1  0  0  0
 37 38  1  0  0  0
 38 39  2  0  0  0
 39 40  1  0  0  0
 40 41  2  0  0  0
 41 42  1  0  0  0
 42 43  2  0  0  0
 32 31  1  0  0  0
 31 23  1  0  0  0
 23 24  2  0  0  0
 24 25  1  0  0  0
 24 26  1  0  0  0
 26 27  2  0  0  0
 27  1  1  0  0  0
  1  2  2  0  0  0
  2  3  1  0  0  0
  3  4  2  0  0  0
  4  7  1  0  0  0
  7  8  2  0  0  0
  8 16  1  0  0  0
 16 17  1  0  0  0
 17 18  2  0  0  0
 18 19  1  0  0  0
 19 20  2  0  0  0
 20 21  1  0  0  0
 21 22  2  0  0  0
  8  9  1  0  0  0
  9 10  1  0  0  0
 10 11  2  0  0  0
 11 12  1  0  0  0
 12 13  2  0  0  0
 13 14  1  0  0  0
 14 15  2  0  0  0
  4  5  1  0  0  0
  5  6  2  0  0  0
 27 28  1  0  0  0
 28 29  2  0  0  0
 29 30  1  0  0  0
 43 38  1  0  0  0
 29 23  1  0  0  0
  6  1  1  0  0  0
 15  7  1  0  0  0
 22 17  1  0  0  0
 15 10  1  0  0  0
 35 36  1  0  0  0
M  END
> <minimizedAffinity>
-5.07497

> <CNNscore>
0.2845076025

> <CNNaffinity>
5.8146295547

> <CNN_VS>
1.6543062925

> <CNNaffinity_variance>
0.0794497505

$$$$
[H]c1c(F)c(C(=O)N([H])S(=O)(=O)C2([H])C([H])([H])C2([H])[H])c([H])c(C2([H])C([H])([H])C2([H])[H])c1OC([H])([H])C1([H])C([H])([H])C([H])([H])C([H])(C(F)(F)F)C([H])([H])C1([H])[H]


 32 35  0  0  0  0  0  0  0  0999 V2000
   34.4011  -14.4124   36.7611 C   0  0  0  0  0  0  0  0  0  0  0  0
   33.8623  -15.6452   36.3759 C   0  0  0  0  0  0  0  0  0  0  0  0
   34.5997  -16.6555   35.8472 C   0  0  0  0  0  0  0  0  0  0  0  0
   36.0000  -16.5066   35.6524 C   0  0  0  0  0  0  0  0  0  0  0  0
   36.5141  -15.2845   36.0388 C   0  0  0  0  0  0  0  0  0  0  0  0
   35.7352  -14.2637   36.5788 C   0  0  0  0  0  0  0  0  0  0  0  0
   36.3393  -13.1175   36.9058 F   0  0  0  0  0  0  0  0  0  0  0  0
   33.5826  -13.1886   38.5779 O   0  0  0  0  0  0  0  0  0  0  0  0
   33.4856  -13.4417   37.3200 C   0  0  0  0  0  0  0  0  0  0  0  0
   32.4901  -12.7292   36.6488 N   0  0  0  0  0  0  0  0  0  0  0  0
   32.3220  -12.8310   35.6447 H   0  0  0  0  0  0  0  0  0  0  0  0
   31.4820  -11.6073   37.4810 S   0  0  0  0  0  0  0  0  0  0  0  0
   30.8010  -12.2826   38.6472 O   0  0  0  0  0  0  0  0  0  0  0  0
   30.4084  -11.0622   36.5889 O   0  0  0  0  0  0  0  0  0  0  0  0
   32.4713  -10.2484   38.1244 C   0  0  0  0  0  0  0  0  0  0  0  0
   33.5859   -9.7081   37.2890 C   0  0  0  0  0  0  0  0  0  0  0  0
   32.3034   -8.9745   37.3156 C   0  0  0  0  0  0  0  0  0  0  0  0
   34.0008  -17.9627   35.4249 C   0  0  0  0  0  0  0  0  0  0  0  0
   32.5524  -18.1925   35.4370 C   0  0  0  0  0  0  0  0  0  0  0  0
   33.1823  -17.8782   34.1315 C   0  0  0  0  0  0  0  0  0  0  0  0
   36.6691  -17.5267   35.1381 O   0  0  0  0  0  0  0  0  0  0  0  0
   37.4325  -17.9173   34.1505 C   0  0  0  0  0  0  0  0  0  0  0  0
   38.6007  -18.8151   34.2857 C   0  0  0  0  0  0  0  0  0  0  0  0
   39.7681  -18.4602   33.3844 C   0  0  0  0  0  0  0  0  0  0  0  0
   40.4517  -19.7572   33.0545 C   0  0  0  0  0  0  0  0  0  0  0  0
   40.8683  -20.4943   34.2648 C   0  0  0  0  0  0  0  0  0  0  0  0
   40.2584  -20.1766   35.5668 C   0  0  0  0  0  0  0  0  0  0  0  0
   39.1358  -19.1802   35.5996 C   0  0  0  0  0  0  0  0  0  0  0  0
   40.8400  -22.0237   34.0138 C   0  0  0  0  0  0  0  0  0  0  0  0
   39.5705  -22.4986   33.9007 F   0  0  0  0  0  0  0  0  0  0  0  0
   41.4938  -22.3010   32.8209 F   0  0  0  0  0  0  0  0  0  0  0  0
   41.5364  -22.6765   34.9989 F   0  0  0  0  0  0  0  0  0  0  0  0
  8  9  2  0  0  0
  9 10  1  0  0  0
 10 12  1  0  0  0
 12 13  2  0  0  0
 12 14  2  0  0  0
 12 15  1  0  0  0
 15 16  1  0  0  0
 16 17  1  0  0  0
  9  1  1  0  0  0
  1  2  2  0  0  0
  2  3  1  0  0  0
  3 18  1  0  0  0
 18 19  1  0  0  0
 19 20  1  0  0  0
  3  4  2  0  0  0
  4 21  1  0  0  0
 21 22  1  0  0  0
 22 23  1  0  0  0
 23 24  1  0  0  0
 24 25  1  0  0  0
 25 26  1  0  0  0
 26 29  1  0  0  0
 29 30  1  0  0  0
 29 31  1  0  0  0
 29 32  1  0  0  0
 26 27  1  0  0  0
 27 28  1  0  0  0
  4  5  1  0  0  0
  5  6  2  0  0  0
  6  7  1  0  0  0
 17 15  1  0  0  0
  6  1  1  0  0  0
 20 18  1  0  0  0
 28 23  1  0  0  0
 10 11  1  0  0  0
M  END
> <minimizedAffinity>
-7.72817

> <CNNscore>
0.4251103401

> <CNNaffinity>
6.0888156891

> <CNN_VS>
2.5884184837

> <CNNaffinity_variance>
0.0785317272

$$$$
[H]c1c(F)c(C(=O)N([H])S(=O)(=O)C2([H])C([H])([H])C2([H])[H])c([H])c(C2([H])C([H])([H])C2([H])[H])c1OC([H])([H])C1([H])C([H])([H])C([H])([H])C([H])(C(F)(F)F)C([H])([H])C1([H])[H]


 32 35  0  0  0  0  0  0  0  0999 V2000
   34.3287  -14.4807   36.6517 C   0  0  0  0  0  0  0  0  0  0  0  0
   33.7833  -15.7301   36.3359 C   0  0  0  0  0  0  0  0  0  0  0  0
   34.4963  -16.7422   35.7779 C   0  0  0  0  0  0  0  0  0  0  0  0
   35.8759  -16.5777   35.4769 C   0  0  0  0  0  0  0  0  0  0  0  0
   36.3970  -15.3392   35.7960 C   0  0  0  0  0  0  0  0  0  0  0  0
   35.6433  -14.3171   36.3681 C   0  0  0  0  0  0  0  0  0  0  0  0
   36.2510  -13.1546   36.6231 F   0  0  0  0  0  0  0  0  0  0  0  0
   33.5993  -13.2559   38.5054 O   0  0  0  0  0  0  0  0  0  0  0  0
   33.4410  -13.5102   37.2540 C   0  0  0  0  0  0  0  0  0  0  0  0
   32.4133  -12.7988   36.6317 N   0  0  0  0  0  0  0  0  0  0  0  0
   32.1963  -12.9017   35.6371 H   0  0  0  0  0  0  0  0  0  0  0  0
   31.4464  -11.6769   37.5114 S   0  0  0  0  0  0  0  0  0  0  0  0
   30.8014  -12.3586   38.6942 O   0  0  0  0  0  0  0  0  0  0  0  0
   30.3466  -11.1126   36.6643 O   0  0  0  0  0  0  0  0  0  0  0  0
   32.4709  -10.3340   38.1328 C   0  0  0  0  0  0  0  0  0  0  0  0
   33.5941   -9.8313   37.2856 C   0  0  0  0  0  0  0  0  0  0  0  0
   32.3297   -9.0669   37.3083 C   0  0  0  0  0  0  0  0  0  0  0  0
   33.8894  -18.0678   35.4312 C   0  0  0  0  0  0  0  0  0  0  0  0
   32.4393  -18.2863   35.4511 C   0  0  0  0  0  0  0  0  0  0  0  0
   33.0761  -18.0542   34.1318 C   0  0  0  0  0  0  0  0  0  0  0  0
   36.5220  -17.6002   34.9385 O   0  0  0  0  0  0  0  0  0  0  0  0
   37.3379  -17.9684   33.9848 C   0  0  0  0  0  0  0  0  0  0  0  0
   38.6751  -18.5651   34.1964 C   0  0  0  0  0  0  0  0  0  0  0  0
   38.8508  -19.2411   35.5430 C   0  0  0  0  0  0  0  0  0  0  0  0
   40.3001  -19.0796   35.9065 C   0  0  0  0  0  0  0  0  0  0  0  0
   41.2013  -19.6257   34.8715 C   0  0  0  0  0  0  0  0  0  0  0  0
   40.7010  -19.8542   33.5056 C   0  0  0  0  0  0  0  0  0  0  0  0
   39.3047  -19.4097   33.1785 C   0  0  0  0  0  0  0  0  0  0  0  0
   42.5356  -18.8378   34.8333 C   0  0  0  0  0  0  0  0  0  0  0  0
   42.5354  -17.7919   35.7030 F   0  0  0  0  0  0  0  0  0  0  0  0
   43.5736  -19.6829   35.2019 F   0  0  0  0  0  0  0  0  0  0  0  0
   42.8051  -18.4279   33.5523 F   0  0  0  0  0  0  0  0  0  0  0  0
  8  9  2  0  0  0
  9 10  1  0  0  0
 10 12  1  0  0  0
 12 13  2  0  0  0
 12 14  2  0  0  0
 12 15  1  0  0  0
 15 16  1  0  0  0
 16 17  1  0  0  0
  9  1  1  0  0  0
  1  2  2  0  0  0
  2  3  1  0  0  0
  3 18  1  0  0  0
 18 19  1  0  0  0
 19 20  1  0  0  0
  3  4  2  0  0  0
  4 21  1  0  0  0
 21 22  1  0  0  0
 22 23  1  0  0  0
 23 24  1  0  0  0
 24 25  1  0  0  0
 25 26  1  0  0  0
 26 29  1  0  0  0
 29 30  1  0  0  0
 29 31  1  0  0  0
 29 32  1  0  0  0
 26 27  1  0  0  0
 27 28  1  0  0  0
  4  5  1  0  0  0
  5  6  2  0  0  0
  6  7  1  0  0  0
 17 15  1  0  0  0
  6  1  1  0  0  0
 20 18  1  0  0  0
 28 23  1  0  0  0
 10 11  1  0  0  0
M  END
> <minimizedAffinity>
-8.00776

> <CNNscore>
0.4153539240

> <CNNaffinity>
6.2116775513

> <CNN_VS>
2.5800447464

> <CNNaffinity_variance>
0.0889555514

$$$$
[H]c1c(F)c(C(=O)N([H])S(=O)(=O)C2([H])C([H])([H])C2([H])[H])c([H])c(C2([H])C([H])([H])C2([H])[H])c1OC([H])([H])C1([H])C([H])([H])C([H])([H])C([H])(C(F)(F)F)C([H])([H])C1([H])[H]


 32 35  0  0  0  0  0  0  0  0999 V2000
   34.3592  -14.2948   36.7156 C   0  0  0  0  0  0  0  0  0  0  0  0
   33.8684  -15.5456   36.3245 C   0  0  0  0  0  0  0  0  0  0  0  0
   34.6357  -16.5081   35.7508 C   0  0  0  0  0  0  0  0  0  0  0  0
   36.0192  -16.2860   35.5112 C   0  0  0  0  0  0  0  0  0  0  0  0
   36.4858  -15.0471   35.9043 C   0  0  0  0  0  0  0  0  0  0  0  0
   35.6771  -14.0764   36.4908 C   0  0  0  0  0  0  0  0  0  0  0  0
   36.2353  -12.9077   36.8199 F   0  0  0  0  0  0  0  0  0  0  0  0
   33.5195  -13.1791   38.5914 O   0  0  0  0  0  0  0  0  0  0  0  0
   33.4172  -13.3813   37.3248 C   0  0  0  0  0  0  0  0  0  0  0  0
   32.3904  -12.6756   36.6946 N   0  0  0  0  0  0  0  0  0  0  0  0
   32.2147  -12.7401   35.6887 H   0  0  0  0  0  0  0  0  0  0  0  0
   31.3538  -11.6262   37.5843 S   0  0  0  0  0  0  0  0  0  0  0  0
   30.7906  -12.3448   38.7868 O   0  0  0  0  0  0  0  0  0  0  0  0
   30.1948  -11.1619   36.7556 O   0  0  0  0  0  0  0  0  0  0  0  0
   32.2785  -10.1980   38.1714 C   0  0  0  0  0  0  0  0  0  0  0  0
   33.5004   -9.7723   37.4246 C   0  0  0  0  0  0  0  0  0  0  0  0
   32.2390   -9.0385   37.1921 C   0  0  0  0  0  0  0  0  0  0  0  0
   34.0873  -17.8355   35.3231 C   0  0  0  0  0  0  0  0  0  0  0  0
   32.6713  -18.1799   35.4885 C   0  0  0  0  0  0  0  0  0  0  0  0
   33.1160  -17.7507   34.1402 C   0  0  0  0  0  0  0  0  0  0  0  0
   36.7192  -17.2619   34.9541 O   0  0  0  0  0  0  0  0  0  0  0  0
   37.7179  -18.0907   35.1170 C   0  0  0  0  0  0  0  0  0  0  0  0
   37.8053  -19.1142   36.1817 C   0  0  0  0  0  0  0  0  0  0  0  0
   39.1913  -19.2797   36.7759 C   0  0  0  0  0  0  0  0  0  0  0  0
   39.3032  -20.7223   37.1816 C   0  0  0  0  0  0  0  0  0  0  0  0
   38.2307  -21.1271   38.1130 C   0  0  0  0  0  0  0  0  0  0  0  0
   37.0030  -20.3206   38.2173 C   0  0  0  0  0  0  0  0  0  0  0  0
   36.8330  -19.1633   37.2762 C   0  0  0  0  0  0  0  0  0  0  0  0
   37.8787  -22.6253   37.9282 C   0  0  0  0  0  0  0  0  0  0  0  0
   38.0765  -23.0416   36.6485 F   0  0  0  0  0  0  0  0  0  0  0  0
   38.7014  -23.3898   38.7444 F   0  0  0  0  0  0  0  0  0  0  0  0
   36.5927  -22.8625   38.3422 F   0  0  0  0  0  0  0  0  0  0  0  0
  8  9  2  0  0  0
  9 10  1  0  0  0
 10 12  1  0  0  0
 12 13  2  0  0  0
 12 14  2  0  0  0
 12 15  1  0  0  0
 15 16  1  0  0  0
 16 17  1  0  0  0
  9  1  1  0  0  0
  1  2  2  0  0  0
  2  3  1  0  0  0
  3 18  1  0  0  0
 18 19  1  0  0  0
 19 20  1  0  0  0
  3  4  2  0  0  0
  4 21  1  0  0  0
 21 22  1  0  0  0
 22 23  1  0  0  0
 23 24  1  0  0  0
 24 25  1  0  0  0
 25 26  1  0  0  0
 26 29  1  0  0  0
 29 30  1  0  0  0
 29 31  1  0  0  0
 29 32  1  0  0  0
 26 27  1  0  0  0
 27 28  1  0  0  0
  4  5  1  0  0  0
  5  6  2  0  0  0
  6  7  1  0  0  0
 17 15  1  0  0  0
  6  1  1  0  0  0
 20 18  1  0  0  0
 28 23  1  0  0  0
 10 11  1  0  0  0
M  END
> <minimizedAffinity>
-7.47569

> <CNNscore>
0.3933203816

> <CNNaffinity>
6.1306719780

> <CNN_VS>
2.4113183022

> <CNNaffinity_variance>
0.1058276892

$$$$
[H]c1c(F)c(C(=O)N([H])S(=O)(=O)C2([H])C([H])([H])C2([H])[H])c([H])c(C2([H])C([H])([H])C2([H])[H])c1OC([H])([H])C1([H])C([H])([H])C([H])([H])C([H])(C(F)(F)F)C([H])([H])C1([H])[H]


 32 35  0  0  0  0  0  0  0  0999 V2000
   39.4540  -20.0626   37.4975 C   0  0  0  0  0  0  0  0  0  0  0  0
   39.6427  -19.5039   36.2284 C   0  0  0  0  0  0  0  0  0  0  0  0
   38.6234  -19.1364   35.4098 C   0  0  0  0  0  0  0  0  0  0  0  0
   37.2711  -19.3065   35.8138 C   0  0  0  0  0  0  0  0  0  0  0  0
   37.1042  -19.8581   37.0688 C   0  0  0  0  0  0  0  0  0  0  0  0
   38.1677  -20.2270   37.8893 C   0  0  0  0  0  0  0  0  0  0  0  0
   37.8863  -20.7632   39.0805 F   0  0  0  0  0  0  0  0  0  0  0  0
   40.7982  -21.6148   38.6165 O   0  0  0  0  0  0  0  0  0  0  0  0
   40.6428  -20.3900   38.2540 C   0  0  0  0  0  0  0  0  0  0  0  0
   41.6649  -19.5234   38.6460 N   0  0  0  0  0  0  0  0  0  0  0  0
   41.6647  -18.5283   38.4077 H   0  0  0  0  0  0  0  0  0  0  0  0
   43.0149  -20.0902   39.5535 S   0  0  0  0  0  0  0  0  0  0  0  0
   44.1180  -19.0592   39.5476 O   0  0  0  0  0  0  0  0  0  0  0  0
   43.5779  -21.3529   38.9754 O   0  0  0  0  0  0  0  0  0  0  0  0
   42.5316  -20.3793   41.2629 C   0  0  0  0  0  0  0  0  0  0  0  0
   42.6756  -19.2684   42.2516 C   0  0  0  0  0  0  0  0  0  0  0  0
   41.3396  -19.5363   41.6795 C   0  0  0  0  0  0  0  0  0  0  0  0
   38.8463  -18.5554   34.0465 C   0  0  0  0  0  0  0  0  0  0  0  0
   40.1728  -18.5294   33.4215 C   0  0  0  0  0  0  0  0  0  0  0  0
   39.2353  -19.5940   32.9882 C   0  0  0  0  0  0  0  0  0  0  0  0
   36.3186  -18.9254   34.9770 O   0  0  0  0  0  0  0  0  0  0  0  0
   35.3418  -19.3343   34.2092 C   0  0  0  0  0  0  0  0  0  0  0  0
   33.9492  -19.5582   34.6557 C   0  0  0  0  0  0  0  0  0  0  0  0
   33.7290  -19.3481   36.1418 C   0  0  0  0  0  0  0  0  0  0  0  0
   32.6311  -20.2940   36.5400 C   0  0  0  0  0  0  0  0  0  0  0  0
   31.4020  -20.0913   35.7465 C   0  0  0  0  0  0  0  0  0  0  0  0
   31.4649  -19.3748   34.4616 C   0  0  0  0  0  0  0  0  0  0  0  0
   32.8137  -18.9706   33.9406 C   0  0  0  0  0  0  0  0  0  0  0  0
   30.6264  -21.4236   35.5846 C   0  0  0  0  0  0  0  0  0  0  0  0
   31.2197  -22.2530   34.6844 F   0  0  0  0  0  0  0  0  0  0  0  0
   30.6010  -22.0862   36.8043 F   0  0  0  0  0  0  0  0  0  0  0  0
   29.3196  -21.1716   35.2525 F   0  0  0  0  0  0  0  0  0  0  0  0
  8  9  2  0  0  0
  9 10  1  0  0  0
 10 12  1  0  0  0
 12 13  2  0  0  0
 12 14  2  0  0  0
 12 15  1  0  0  0
 15 16  1  0  0  0
 16 17  1  0  0  0
  9  1  1  0  0  0
  1  2  2  0  0  0
  2  3  1  0  0  0
  3 18  1  0  0  0
 18 19  1  0  0  0
 19 20  1  0  0  0
  3  4  2  0  0  0
  4 21  1  0  0  0
 21 22  1  0  0  0
 22 23  1  0  0  0
 23 24  1  0  0  0
 24 25  1  0  0  0
 25 26  1  0  0  0
 26 29  1  0  0  0
 29 30  1  0  0  0
 29 31  1  0  0  0
 29 32  1  0  0  0
 26 27  1  0  0  0
 27 28  1  0  0  0
  4  5  1  0  0  0
  5  6  2  0  0  0
  6  7  1  0  0  0
 17 15  1  0  0  0
  6  1  1  0  0  0
 20 18  1  0  0  0
 28 23  1  0  0  0
 10 11  1  0  0  0
M  END
> <minimizedAffinity>
-5.43623

> <CNNscore>
0.2826361656

> <CNNaffinity>
5.2163419724

> <CNN_VS>
1.4743268490

> <CNNaffinity_variance>
0.0641670302

$$$$
[H]c1c(F)c(C(=O)N([H])S(=O)(=O)C2([H])C([H])([H])C2([H])[H])c([H])c(C2([H])C([H])([H])C2([H])[H])c1OC([H])([H])C1([H])C([H])([H])C([H])([H])C([H])(C(F)(F)F)C([H])([H])C1([H])[H]


 32 35  0  0  0  0  0  0  0  0999 V2000
   38.3154  -18.8620   35.6125 C   0  0  0  0  0  0  0  0  0  0  0  0
   37.6768  -17.8410   36.3253 C   0  0  0  0  0  0  0  0  0  0  0  0
   36.4212  -17.4034   36.0492 C   0  0  0  0  0  0  0  0  0  0  0  0
   35.6693  -17.9787   34.9887 C   0  0  0  0  0  0  0  0  0  0  0  0
   36.3149  -18.9848   34.2973 C   0  0  0  0  0  0  0  0  0  0  0  0
   37.6045  -19.4152   34.6008 C   0  0  0  0  0  0  0  0  0  0  0  0
   38.1341  -20.3895   33.8552 F   0  0  0  0  0  0  0  0  0  0  0  0
   39.8096  -20.3797   36.5781 O   0  0  0  0  0  0  0  0  0  0  0  0
   39.6504  -19.2231   36.0372 C   0  0  0  0  0  0  0  0  0  0  0  0
   40.8121  -18.4564   35.9286 N   0  0  0  0  0  0  0  0  0  0  0  0
   40.8197  -17.5251   35.5047 H   0  0  0  0  0  0  0  0  0  0  0  0
   42.3272  -19.0488   36.4954 S   0  0  0  0  0  0  0  0  0  0  0  0
   42.6627  -20.3562   35.8189 O   0  0  0  0  0  0  0  0  0  0  0  0
   42.3040  -19.3008   37.9724 O   0  0  0  0  0  0  0  0  0  0  0  0
   43.6329  -17.8713   36.1107 C   0  0  0  0  0  0  0  0  0  0  0  0
   43.2645  -16.5596   35.4976 C   0  0  0  0  0  0  0  0  0  0  0  0
   43.5408  -16.6084   36.9485 C   0  0  0  0  0  0  0  0  0  0  0  0
   35.7609  -16.2965   36.8137 C   0  0  0  0  0  0  0  0  0  0  0  0
   36.5158  -15.4150   37.7103 C   0  0  0  0  0  0  0  0  0  0  0  0
   36.1852  -14.8945   36.3613 C   0  0  0  0  0  0  0  0  0  0  0  0
   34.4486  -17.5160   34.7686 O   0  0  0  0  0  0  0  0  0  0  0  0
   33.2285  -17.8366   34.4229 C   0  0  0  0  0  0  0  0  0  0  0  0
   32.5076  -19.0449   34.8801 C   0  0  0  0  0  0  0  0  0  0  0  0
   32.9439  -19.5545   36.2406 C   0  0  0  0  0  0  0  0  0  0  0  0
   32.7613  -21.0459   36.2073 C   0  0  0  0  0  0  0  0  0  0  0  0
   31.3765  -21.4332   35.8697 C   0  0  0  0  0  0  0  0  0  0  0  0
   30.4795  -20.4649   35.2170 C   0  0  0  0  0  0  0  0  0  0  0  0
   31.0474  -19.1368   34.8073 C   0  0  0  0  0  0  0  0  0  0  0  0
   31.3531  -22.7861   35.1135 C   0  0  0  0  0  0  0  0  0  0  0  0
   30.0846  -23.2151   34.8747 F   0  0  0  0  0  0  0  0  0  0  0  0
   31.9763  -22.6301   33.8827 F   0  0  0  0  0  0  0  0  0  0  0  0
   32.0811  -23.7236   35.8010 F   0  0  0  0  0  0  0  0  0  0  0  0
  8  9  2  0  0  0
  9 10  1  0  0  0
 10 12  1  0  0  0
 12 13  2  0  0  0
 12 14  2  0  0  0
 12 15  1  0  0  0
 15 16  1  0  0  0
 16 17  1  0  0  0
  9  1  1  0  0  0
  1  2  2  0  0  0
  2  3  1  0  0  0
  3 18  1  0  0  0
 18 19  1  0  0  0
 19 20  1  0  0  0
  3  4  2  0  0  0
  4 21  1  0  0  0
 21 22  1  0  0  0
 22 23  1  0  0  0
 23 24  1  0  0  0
 24 25  1  0  0  0
 25 26  1  0  0  0
 26 29  1  0  0  0
 29 30  1  0  0  0
 29 31  1  0  0  0
 29 32  1  0  0  0
 26 27  1  0  0  0
 27 28  1  0  0  0
  4  5  1  0  0  0
  5  6  2  0  0  0
  6  7  1  0  0  0
 17 15  1  0  0  0
  6  1  1  0  0  0
 20 18  1  0  0  0
 28 23  1  0  0  0
 10 11  1  0  0  0
M  END
> <minimizedAffinity>
-7.05138

> <CNNscore>
0.2580953538

> <CNNaffinity>
5.4488649368

> <CNN_VS>
1.4063267708

> <CNNaffinity_variance>
0.5441212058

$$$$
[H]c1c(F)c(C(=O)N([H])S(=O)(=O)C2([H])C([H])([H])C2([H])[H])c([H])c(C2([H])C([H])([H])C2([H])[H])c1OC([H])([H])C1([H])C([H])([H])C([H])([H])C([H])(C(F)(F)F)C([H])([H])C1([H])[H]


 32 35  0  0  0  0  0  0  0  0999 V2000
   34.3181  -21.1563   36.7129 C   0  0  0  0  0  0  0  0  0  0  0  0
   34.0267  -20.1185   35.8206 C   0  0  0  0  0  0  0  0  0  0  0  0
   34.8538  -19.0648   35.5972 C   0  0  0  0  0  0  0  0  0  0  0  0
   36.0960  -18.9601   36.2804 C   0  0  0  0  0  0  0  0  0  0  0  0
   36.3670  -19.9932   37.1558 C   0  0  0  0  0  0  0  0  0  0  0  0
   35.5008  -21.0633   37.3670 C   0  0  0  0  0  0  0  0  0  0  0  0
   35.8623  -22.0007   38.2482 F   0  0  0  0  0  0  0  0  0  0  0  0
   32.9542  -22.5397   38.0146 O   0  0  0  0  0  0  0  0  0  0  0  0
   33.3394  -22.2151   36.8306 C   0  0  0  0  0  0  0  0  0  0  0  0
   32.7472  -22.9423   35.7963 N   0  0  0  0  0  0  0  0  0  0  0  0
   32.9594  -22.7700   34.8103 H   0  0  0  0  0  0  0  0  0  0  0  0
   31.5946  -24.1800   36.1234 S   0  0  0  0  0  0  0  0  0  0  0  0
   31.9212  -24.8660   37.4282 O   0  0  0  0  0  0  0  0  0  0  0  0
   31.5920  -25.2290   35.0533 O   0  0  0  0  0  0  0  0  0  0  0  0
   29.9479  -23.4675   36.2655 C   0  0  0  0  0  0  0  0  0  0  0  0
   29.7724  -22.2049   37.0446 C   0  0  0  0  0  0  0  0  0  0  0  0
   29.8356  -22.1223   35.5706 C   0  0  0  0  0  0  0  0  0  0  0  0
   34.5156  -17.9540   34.6498 C   0  0  0  0  0  0  0  0  0  0  0  0
   33.1617  -17.7753   34.1152 C   0  0  0  0  0  0  0  0  0  0  0  0
   33.5707  -16.9025   35.2425 C   0  0  0  0  0  0  0  0  0  0  0  0
   36.8642  -17.9139   36.0190 O   0  0  0  0  0  0  0  0  0  0  0  0
   37.4991  -16.8956   36.5391 C   0  0  0  0  0  0  0  0  0  0  0  0
   36.8824  -15.5931   36.8741 C   0  0  0  0  0  0  0  0  0  0  0  0
   35.8609  -15.6560   37.9937 C   0  0  0  0  0  0  0  0  0  0  0  0
   34.8480  -14.5862   37.6967 C   0  0  0  0  0  0  0  0  0  0  0  0
   35.4661  -13.2515   37.5620 C   0  0  0  0  0  0  0  0  0  0  0  0
   36.9108  -13.1319   37.3034 C   0  0  0  0  0  0  0  0  0  0  0  0
   37.6954  -14.3900   37.0677 C   0  0  0  0  0  0  0  0  0  0  0  0
   34.6648  -12.3726   36.5680 C   0  0  0  0  0  0  0  0  0  0  0  0
   33.9350  -11.4178   37.2051 F   0  0  0  0  0  0  0  0  0  0  0  0
   35.5507  -11.7205   35.7211 F   0  0  0  0  0  0  0  0  0  0  0  0
   33.8754  -13.1618   35.7707 F   0  0  0  0  0  0  0  0  0  0  0  0
  8  9  2  0  0  0
  9 10  1  0  0  0
 10 12  1  0  0  0
 12 13  2  0  0  0
 12 14  2  0  0  0
 12 15  1  0  0  0
 15 16  1  0  0  0
 16 17  1  0  0  0
  9  1  1  0  0  0
  1  2  2  0  0  0
  2  3  1  0  0  0
  3 18  1  0  0  0
 18 19  1  0  0  0
 19 20  1  0  0  0
  3  4  2  0  0  0
  4 21  1  0  0  0
 21 22  1  0  0  0
 22 23  1  0  0  0
 23 24  1  0  0  0
 24 25  1  0  0  0
 25 26  1  0  0  0
 26 29  1  0  0  0
 29 30  1  0  0  0
 29 31  1  0  0  0
 29 32  1  0  0  0
 26 27  1  0  0  0
 27 28  1  0  0  0
  4  5  1  0  0  0
  5  6  2  0  0  0
  6  7  1  0  0  0
 17 15  1  0  0  0
  6  1  1  0  0  0
 20 18  1  0  0  0
 28 23  1  0  0  0
 10 11  1  0  0  0
M  END
> <minimizedAffinity>
-5.56276

> <CNNscore>
0.2051988393

> <CNNaffinity>
5.3717546463

> <CNN_VS>
1.1022778749

> <CNNaffinity_variance>
0.0695685893

$$$$
[H]c1c(F)c(C(=O)N([H])S(=O)(=O)C2([H])C([H])([H])C2([H])[H])c([H])c(C2([H])C([H])([H])C2([H])[H])c1OC([H])([H])C1([H])C([H])([H])C([H])([H])C([H])(C(F)(F)F)C([H])([H])C1([H])[H]


 32 35  0  0  0  0  0  0  0  0999 V2000
   36.9579  -20.6908   37.9828 C   0  0  0  0  0  0  0  0  0  0  0  0
   36.8017  -19.3503   37.6126 C   0  0  0  0  0  0  0  0  0  0  0  0
   35.7502  -18.8883   36.8881 C   0  0  0  0  0  0  0  0  0  0  0  0
   34.7233  -19.7712   36.4556 C   0  0  0  0  0  0  0  0  0  0  0  0
   34.8937  -21.0893   36.8308 C   0  0  0  0  0  0  0  0  0  0  0  0
   35.9826  -21.5378   37.5746 C   0  0  0  0  0  0  0  0  0  0  0  0
   36.0494  -22.8394   37.8697 F   0  0  0  0  0  0  0  0  0  0  0  0
   37.9458  -21.3461   39.9985 O   0  0  0  0  0  0  0  0  0  0  0  0
   38.1277  -21.0234   38.7663 C   0  0  0  0  0  0  0  0  0  0  0  0
   39.4574  -21.0398   38.3411 N   0  0  0  0  0  0  0  0  0  0  0  0
   39.7314  -20.8159   37.3810 H   0  0  0  0  0  0  0  0  0  0  0  0
   40.7329  -21.4603   39.4198 S   0  0  0  0  0  0  0  0  0  0  0  0
   42.0279  -21.6206   38.6601 O   0  0  0  0  0  0  0  0  0  0  0  0
   40.4597  -22.7571   40.1193 O   0  0  0  0  0  0  0  0  0  0  0  0
   40.9615  -20.1589   40.6420 C   0  0  0  0  0  0  0  0  0  0  0  0
   42.2774  -20.0475   41.3405 C   0  0  0  0  0  0  0  0  0  0  0  0
   41.9970  -19.1349   40.2126 C   0  0  0  0  0  0  0  0  0  0  0  0
   35.6097  -17.4512   36.4869 C   0  0  0  0  0  0  0  0  0  0  0  0
   36.6920  -16.4813   36.6838 C   0  0  0  0  0  0  0  0  0  0  0  0
   36.5190  -17.0432   35.3221 C   0  0  0  0  0  0  0  0  0  0  0  0
   33.7196  -19.2641   35.7568 O   0  0  0  0  0  0  0  0  0  0  0  0
   32.4235  -19.0940   35.7139 C   0  0  0  0  0  0  0  0  0  0  0  0
   31.4254  -20.1858   35.6897 C   0  0  0  0  0  0  0  0  0  0  0  0
   30.0602  -19.7719   35.1739 C   0  0  0  0  0  0  0  0  0  0  0  0
   29.0615  -20.6320   35.8959 C   0  0  0  0  0  0  0  0  0  0  0  0
   29.3279  -22.0733   35.7133 C   0  0  0  0  0  0  0  0  0  0  0  0
   30.6570  -22.5259   35.2694 C   0  0  0  0  0  0  0  0  0  0  0  0
   31.7442  -21.5003   35.1272 C   0  0  0  0  0  0  0  0  0  0  0  0
   28.8702  -22.8786   36.9561 C   0  0  0  0  0  0  0  0  0  0  0  0
   28.7610  -24.2082   36.6905 F   0  0  0  0  0  0  0  0  0  0  0  0
   29.8133  -22.7337   37.9646 F   0  0  0  0  0  0  0  0  0  0  0  0
   27.6965  -22.3644   37.4455 F   0  0  0  0  0  0  0  0  0  0  0  0
  8  9  2  0  0  0
  9 10  1  0  0  0
 10 12  1  0  0  0
 12 13  2  0  0  0
 12 14  2  0  0  0
 12 15  1  0  0  0
 15 16  1  0  0  0
 16 17  1  0  0  0
  9  1  1  0  0  0
  1  2  2  0  0  0
  2  3  1  0  0  0
  3 18  1  0  0  0
 18 19  1  0  0  0
 19 20  1  0  0  0
  3  4  2  0  0  0
  4 21  1  0  0  0
 21 22  1  0  0  0
 22 23  1  0  0  0
 23 24  1  0  0  0
 24 25  1  0  0  0
 25 26  1  0  0  0
 26 29  1  0  0  0
 29 30  1  0  0  0
 29 31  1  0  0  0
 29 32  1  0  0  0
 26 27  1  0  0  0
 27 28  1  0  0  0
  4  5  1  0  0  0
  5  6  2  0  0  0
  6  7  1  0  0  0
 17 15  1  0  0  0
  6  1  1  0  0  0
 20 18  1  0  0  0
 28 23  1  0  0  0
 10 11  1  0  0  0
M  END
> <minimizedAffinity>
-5.16874

> <CNNscore>
0.1885107607

> <CNNaffinity>
4.8980321884

> <CNN_VS>
0.9233317971

> <CNNaffinity_variance>
0.1934042126

$$$$
[H]c1c(F)c(C(=O)N([H])S(=O)(=O)C2([H])C([H])([H])C2([H])[H])c([H])c(C2([H])C([H])([H])C2([H])[H])c1OC([H])([H])C1([H])C([H])([H])C([H])([H])C([H])(C(F)(F)F)C([H])([H])C1([H])[H]


 32 35  0  0  0  0  0  0  0  0999 V2000
   35.1144  -15.3318   36.5301 C   0  0  0  0  0  0  0  0  0  0  0  0
   34.2916  -16.3984   36.1509 C   0  0  0  0  0  0  0  0  0  0  0  0
   34.7541  -17.5330   35.5653 C   0  0  0  0  0  0  0  0  0  0  0  0
   36.1407  -17.6991   35.2998 C   0  0  0  0  0  0  0  0  0  0  0  0
   36.9371  -16.6373   35.6815 C   0  0  0  0  0  0  0  0  0  0  0  0
   36.4372  -15.4835   36.2806 C   0  0  0  0  0  0  0  0  0  0  0  0
   37.3011  -14.5142   36.5968 F   0  0  0  0  0  0  0  0  0  0  0  0
   35.1982  -13.4327   37.8921 O   0  0  0  0  0  0  0  0  0  0  0  0
   34.4712  -14.1964   37.1546 C   0  0  0  0  0  0  0  0  0  0  0  0
   33.1312  -13.8178   37.0523 N   0  0  0  0  0  0  0  0  0  0  0  0
   32.4546  -14.3350   36.4852 H   0  0  0  0  0  0  0  0  0  0  0  0
   32.5327  -12.4272   37.8742 S   0  0  0  0  0  0  0  0  0  0  0  0
   33.4387  -11.2448   37.6275 O   0  0  0  0  0  0  0  0  0  0  0  0
   32.4721  -12.6446   39.3556 O   0  0  0  0  0  0  0  0  0  0  0  0
   30.8920  -12.0086   37.2641 C   0  0  0  0  0  0  0  0  0  0  0  0
   29.8498  -11.5676   38.2396 C   0  0  0  0  0  0  0  0  0  0  0  0
   30.5604  -10.5390   37.4519 C   0  0  0  0  0  0  0  0  0  0  0  0
   33.8542  -18.6573   35.1507 C   0  0  0  0  0  0  0  0  0  0  0  0
   32.4598  -18.7402   35.5975 C   0  0  0  0  0  0  0  0  0  0  0  0
   32.7081  -18.2239   34.2294 C   0  0  0  0  0  0  0  0  0  0  0  0
   36.5351  -18.8282   34.7320 O   0  0  0  0  0  0  0  0  0  0  0  0
   37.3476  -19.3584   33.8548 C   0  0  0  0  0  0  0  0  0  0  0  0
   38.4685  -20.2681   34.1786 C   0  0  0  0  0  0  0  0  0  0  0  0
   39.8434  -19.6786   33.9265 C   0  0  0  0  0  0  0  0  0  0  0  0
   40.7296  -20.8310   33.5457 C   0  0  0  0  0  0  0  0  0  0  0  0
   40.7427  -21.8911   34.5741 C   0  0  0  0  0  0  0  0  0  0  0  0
   39.6657  -21.9583   35.5760 C   0  0  0  0  0  0  0  0  0  0  0  0
   38.5147  -21.0034   35.4447 C   0  0  0  0  0  0  0  0  0  0  0  0
   40.9661  -23.2818   33.9270 C   0  0  0  0  0  0  0  0  0  0  0  0
   41.4467  -24.1885   34.8197 F   0  0  0  0  0  0  0  0  0  0  0  0
   39.7522  -23.7655   33.4579 F   0  0  0  0  0  0  0  0  0  0  0  0
   41.7867  -23.1672   32.8338 F   0  0  0  0  0  0  0  0  0  0  0  0
  8  9  2  0  0  0
  9 10  1  0  0  0
 10 12  1  0  0  0
 12 13  2  0  0  0
 12 14  2  0  0  0
 12 15  1  0  0  0
 15 16  1  0  0  0
 16 17  1  0  0  0
  9  1  1  0  0  0
  1  2  2  0  0  0
  2  3  1  0  0  0
  3 18  1  0  0  0
 18 19  1  0  0  0
 19 20  1  0  0  0
  3  4  2  0  0  0
  4 21  1  0  0  0
 21 22  1  0  0  0
 22 23  1  0  0  0
 23 24  1  0  0  0
 24 25  1  0  0  0
 25 26  1  0  0  0
 26 29  1  0  0  0
 29 30  1  0  0  0
 29 31  1  0  0  0
 29 32  1  0  0  0
 26 27  1  0  0  0
 27 28  1  0  0  0
  4  5  1  0  0  0
  5  6  2  0  0  0
  6  7  1  0  0  0
 17 15  1  0  0  0
  6  1  1  0  0  0
 20 18  1  0  0  0
 28 23  1  0  0  0
 10 11  1  0  0  0
M  END
> <minimizedAffinity>
-7.12153

> <CNNscore>
0.1857560724

> <CNNaffinity>
5.6445188522

> <CNN_VS>
1.0485036373

> <CNNaffinity_variance>
0.0340762362

$$$$
[H]c1c(F)c(C(=O)N([H])S(=O)(=O)C2([H])C([H])([H])C2([H])[H])c([H])c(C2([H])C([H])([H])C2([H])[H])c1OC([H])([H])C1([H])C([H])([H])C([H])([H])C([H])(C(F)(F)F)C([H])([H])C1([H])[H]


 32 35  0  0  0  0  0  0  0  0999 V2000
   32.8098  -21.3171   37.3377 C   0  0  0  0  0  0  0  0  0  0  0  0
   32.9431  -20.4870   36.2190 C   0  0  0  0  0  0  0  0  0  0  0  0
   33.9694  -19.6141   36.0489 C   0  0  0  0  0  0  0  0  0  0  0  0
   34.9917  -19.4961   37.0297 C   0  0  0  0  0  0  0  0  0  0  0  0
   34.8440  -20.3233   38.1257 C   0  0  0  0  0  0  0  0  0  0  0  0
   33.7808  -21.2105   38.2762 C   0  0  0  0  0  0  0  0  0  0  0  0
   33.7343  -21.9540   39.3856 F   0  0  0  0  0  0  0  0  0  0  0  0
   31.8822  -23.4456   37.6162 O   0  0  0  0  0  0  0  0  0  0  0  0
   31.6658  -22.2022   37.3657 C   0  0  0  0  0  0  0  0  0  0  0  0
   30.3276  -21.8665   37.1518 N   0  0  0  0  0  0  0  0  0  0  0  0
   30.0244  -20.9088   36.9572 H   0  0  0  0  0  0  0  0  0  0  0  0
   29.0874  -23.0601   37.2204 S   0  0  0  0  0  0  0  0  0  0  0  0
   27.7288  -22.4070   37.1350 O   0  0  0  0  0  0  0  0  0  0  0  0
   29.1342  -23.8320   38.5040 O   0  0  0  0  0  0  0  0  0  0  0  0
   29.2474  -24.1964   35.8338 C   0  0  0  0  0  0  0  0  0  0  0  0
   29.1473  -25.6651   36.0886 C   0  0  0  0  0  0  0  0  0  0  0  0
   27.9637  -24.9582   35.5566 C   0  0  0  0  0  0  0  0  0  0  0  0
   34.0853  -18.7209   34.8512 C   0  0  0  0  0  0  0  0  0  0  0  0
   32.9746  -18.5348   33.9116 C   0  0  0  0  0  0  0  0  0  0  0  0
   33.1978  -17.4730   34.9229 C   0  0  0  0  0  0  0  0  0  0  0  0
   35.9704  -18.6325   36.8083 O   0  0  0  0  0  0  0  0  0  0  0  0
   36.6176  -17.6021   37.2880 C   0  0  0  0  0  0  0  0  0  0  0  0
   36.2812  -16.1875   37.0149 C   0  0  0  0  0  0  0  0  0  0  0  0
   37.1717  -15.1859   37.7256 C   0  0  0  0  0  0  0  0  0  0  0  0
   36.3145  -13.9815   37.9958 C   0  0  0  0  0  0  0  0  0  0  0  0
   35.7114  -13.4353   36.7630 C   0  0  0  0  0  0  0  0  0  0  0  0
   35.6251  -14.2702   35.5531 C   0  0  0  0  0  0  0  0  0  0  0  0
   36.0544  -15.7057   35.6503 C   0  0  0  0  0  0  0  0  0  0  0  0
   34.3399  -12.7798   37.0660 C   0  0  0  0  0  0  0  0  0  0  0  0
   34.4265  -11.4241   37.1343 F   0  0  0  0  0  0  0  0  0  0  0  0
   33.4530  -13.0872   36.0431 F   0  0  0  0  0  0  0  0  0  0  0  0
   33.8071  -13.3092   38.2137 F   0  0  0  0  0  0  0  0  0  0  0  0
  8  9  2  0  0  0
  9 10  1  0  0  0
 10 12  1  0  0  0
 12 13  2  0  0  0
 12 14  2  0  0  0
 12 15  1  0  0  0
 15 16  1  0  0  0
 16 17  1  0  0  0
  9  1  1  0  0  0
  1  2  2  0  0  0
  2  3  1  0  0  0
  3 18  1  0  0  0
 18 19  1  0  0  0
 19 20  1  0  0  0
  3  4  2  0  0  0
  4 21  1  0  0  0
 21 22  1  0  0  0
 22 23  1  0  0  0
 23 24  1  0  0  0
 24 25  1  0  0  0
 25 26  1  0  0  0
 26 29  1  0  0  0
 29 30  1  0  0  0
 29 31  1  0  0  0
 29 32  1  0  0  0
 26 27  1  0  0  0
 27 28  1  0  0  0
  4  5  1  0  0  0
  5  6  2  0  0  0
  6  7  1  0  0  0
 17 15  1  0  0  0
  6  1  1  0  0  0
 20 18  1  0  0  0
 28 23  1  0  0  0
 10 11  1  0  0  0
M  END
> <minimizedAffinity>
-6.34217

> <CNNscore>
0.1787770987

> <CNNaffinity>
5.1705694199

> <CNN_VS>
0.9243794084

> <CNNaffinity_variance>
0.2060322016

$$$$
[H]OC(=O)C1=C([H])[C@@]([H])(O[C@@]([H])(C([H])([H])C([H])([H])[H])C([H])([H])C([H])([H])C([H])([H])C([H])([H])C([H])([H])C([H])([H])C([H])([H])[H])[C@]([H])(N([H])C(=O)C([H])([H])[H])[C@@]([H])(N([H])[H])C1([H])[H]


 29 29  0  0  0  0  0  0  0  0999 V2000
   34.4076  -12.4867   37.1569 C   0  0  0  0  0  0  0  0  0  0  0  0
   33.1217  -13.1540   37.6055 C   0  0  0  0  0  0  0  0  0  0  0  0
   32.4187  -12.5567   38.5683 C   0  0  0  0  0  0  0  0  0  0  0  0
   33.0421  -11.2645   39.0448 C   0  0  0  0  0  0  0  0  0  0  0  0
   33.1344  -10.4114   37.8059 C   0  0  0  0  0  0  0  0  0  0  0  0
   31.7935  -10.0713   37.3399 N   0  0  0  0  0  0  0  0  0  0  0  0
   33.9281  -11.1143   36.7392 C   0  0  0  0  0  0  0  0  0  0  0  0
   31.0735  -10.3031   38.0590 H   0  0  0  0  0  0  0  0  0  0  0  0
   31.7544   -9.0236   37.1561 H   0  0  0  0  0  0  0  0  0  0  0  0
   34.9857  -10.2017   36.3704 N   0  0  0  0  0  0  0  0  0  0  0  0
   34.7605   -8.8343   36.1046 C   0  0  0  0  0  0  0  0  0  0  0  0
   35.8390   -7.8916   35.7257 C   0  0  0  0  0  0  0  0  0  0  0  0
   33.5901   -8.3894   36.1921 O   0  0  0  0  0  0  0  0  0  0  0  0
   35.9529  -10.5792   36.3001 H   0  0  0  0  0  0  0  0  0  0  0  0
   31.1870  -13.0202   39.1314 C   0  0  0  0  0  0  0  0  0  0  0  0
   31.1161  -13.6512   40.2233 O   0  0  0  0  0  0  0  0  0  0  0  0
   29.9993  -12.7639   38.4414 O   0  0  0  0  0  0  0  0  0  0  0  0
   29.1865  -12.5363   39.0218 H   0  0  0  0  0  0  0  0  0  0  0  0
   34.9365  -13.2243   36.1539 O   0  0  0  0  0  0  0  0  0  0  0  0
   35.9974  -14.0831   36.4594 C   0  0  0  0  0  0  0  0  0  0  0  0
   36.7136  -13.8024   37.7202 C   0  0  0  0  0  0  0  0  0  0  0  0
   38.1696  -13.4191   37.4487 C   0  0  0  0  0  0  0  0  0  0  0  0
   35.6731  -15.4984   36.2620 C   0  0  0  0  0  0  0  0  0  0  0  0
   36.4740  -16.4452   35.4854 C   0  0  0  0  0  0  0  0  0  0  0  0
   36.3921  -17.8634   35.8579 C   0  0  0  0  0  0  0  0  0  0  0  0
   35.8825  -18.6931   34.6276 C   0  0  0  0  0  0  0  0  0  0  0  0
   34.6755  -19.4419   35.1557 C   0  0  0  0  0  0  0  0  0  0  0  0
   32.9673  -17.9542   34.2665 C   0  0  0  0  0  0  0  0  0  0  0  0
   33.5529  -18.5183   35.5243 C   0  0  0  0  0  0  0  0  0  0  0  0
 28 29  1  0  0  0
 29 27  1  0  0  0
 27 26  1  0  0  0
 26 25  1  0  0  0
 25 24  1  0  0  0
 24 23  1  0  0  0
 23 20  1  0  0  0
 20 21  1  0  0  0
 21 22  1  0  0  0
 20 19  1  0  0  0
 19  1  1  0  0  0
  1  2  1  0  0  0
  2  3  2  0  0  0
  3 15  1  0  0  0
 15 16  2  0  0  0
 15 17  1  0  0  0
  3  4  1  0  0  0
  4  5  1  0  0  0
  5  6  1  0  0  0
  5  7  1  0  0  0
  7 10  1  0  0  0
 10 11  1  0  0  0
 11 12  1  0  0  0
 11 13  2  0  0  0
  7  1  1  0  0  0
 17 18  1  0  0  0
  6  8  1  0  0  0
  6  9  1  0  0  0
 10 14  1  0  0  0
M  END
> <minimizedAffinity>
-5.32405

> <CNNscore>
0.5419217944

> <CNNaffinity>
6.3307976723

> <CNN_VS>
3.4307973385

> <CNNaffinity_variance>
0.1073654443

$$$$
[H]OC(=O)C1=C([H])[C@@]([H])(O[C@@]([H])(C([H])([H])C([H])([H])[H])C([H])([H])C([H])([H])C([H])([H])C([H])([H])C([H])([H])C([H])([H])C([H])([H])[H])[C@]([H])(N([H])C(=O)C([H])([H])[H])[C@@]([H])(N([H])[H])C1([H])[H]


 29 29  0  0  0  0  0  0  0  0999 V2000
   33.9310  -20.7253   36.3999 C   0  0  0  0  0  0  0  0  0  0  0  0
   32.8771  -21.2088   37.3774 C   0  0  0  0  0  0  0  0  0  0  0  0
   32.9209  -22.4880   37.7509 C   0  0  0  0  0  0  0  0  0  0  0  0
   34.0663  -23.2509   37.1250 C   0  0  0  0  0  0  0  0  0  0  0  0
   35.2994  -22.4984   37.5543 C   0  0  0  0  0  0  0  0  0  0  0  0
   35.4710  -22.6157   38.9992 N   0  0  0  0  0  0  0  0  0  0  0  0
   35.2168  -21.0601   37.1228 C   0  0  0  0  0  0  0  0  0  0  0  0
   34.8443  -23.3500   39.3958 H   0  0  0  0  0  0  0  0  0  0  0  0
   36.4784  -22.8950   39.1991 H   0  0  0  0  0  0  0  0  0  0  0  0
   36.4139  -20.8111   36.3531 N   0  0  0  0  0  0  0  0  0  0  0  0
   37.6416  -20.4420   36.9427 C   0  0  0  0  0  0  0  0  0  0  0  0
   38.8737  -20.1847   36.1611 C   0  0  0  0  0  0  0  0  0  0  0  0
   37.6980  -20.3246   38.1911 O   0  0  0  0  0  0  0  0  0  0  0  0
   36.3579  -20.9106   35.3188 H   0  0  0  0  0  0  0  0  0  0  0  0
   32.0238  -23.1385   38.6570 C   0  0  0  0  0  0  0  0  0  0  0  0
   30.8381  -23.4522   38.3554 O   0  0  0  0  0  0  0  0  0  0  0  0
   32.4785  -23.4442   39.9424 O   0  0  0  0  0  0  0  0  0  0  0  0
   32.1535  -24.3347   40.3304 H   0  0  0  0  0  0  0  0  0  0  0  0
   33.7348  -19.4036   36.1894 O   0  0  0  0  0  0  0  0  0  0  0  0
   33.6821  -18.9500   34.8674 C   0  0  0  0  0  0  0  0  0  0  0  0
   32.5009  -19.3701   34.0866 C   0  0  0  0  0  0  0  0  0  0  0  0
   31.2061  -19.0254   34.8251 C   0  0  0  0  0  0  0  0  0  0  0  0
   34.0125  -17.5292   34.7281 C   0  0  0  0  0  0  0  0  0  0  0  0
   33.8443  -16.5194   35.7736 C   0  0  0  0  0  0  0  0  0  0  0  0
   35.0133  -15.6981   36.1134 C   0  0  0  0  0  0  0  0  0  0  0  0
   34.5795  -14.1932   36.2060 C   0  0  0  0  0  0  0  0  0  0  0  0
   35.5570  -13.5821   37.1897 C   0  0  0  0  0  0  0  0  0  0  0  0
   37.9375  -13.6454   37.6911 C   0  0  0  0  0  0  0  0  0  0  0  0
   36.7189  -14.4878   37.4701 C   0  0  0  0  0  0  0  0  0  0  0  0
 28 29  1  0  0  0
 29 27  1  0  0  0
 27 26  1  0  0  0
 26 25  1  0  0  0
 25 24  1  0  0  0
 24 23  1  0  0  0
 23 20  1  0  0  0
 20 21  1  0  0  0
 21 22  1  0  0  0
 20 19  1  0  0  0
 19  1  1  0  0  0
  1  2  1  0  0  0
  2  3  2  0  0  0
  3 15  1  0  0  0
 15 16  2  0  0  0
 15 17  1  0  0  0
  3  4  1  0  0  0
  4  5  1  0  0  0
  5  6  1  0  0  0
  5  7  1  0  0  0
  7 10  1  0  0  0
 10 11  1  0  0  0
 11 12  1  0  0  0
 11 13  2  0  0  0
  7  1  1  0  0  0
 17 18  1  0  0  0
  6  8  1  0  0  0
  6  9  1  0  0  0
 10 14  1  0  0  0
M  END
> <minimizedAffinity>
-4.72266

> <CNNscore>
0.4411620200

> <CNNaffinity>
4.6839084625

> <CNN_VS>
2.0663626194

> <CNNaffinity_variance>
0.3618178666

$$$$
[H]OC(=O)C1=C([H])[C@@]([H])(O[C@@]([H])(C([H])([H])C([H])([H])[H])C([H])([H])C([H])([H])C([H])([H])C([H])([H])C([H])([H])C([H])([H])C([H])([H])[H])[C@]([H])(N([H])C(=O)C([H])([H])[H])[C@@]([H])(N([H])[H])C1([H])[H]


 29 29  0  0  0  0  0  0  0  0999 V2000
   33.9911  -19.4196   36.1309 C   0  0  0  0  0  0  0  0  0  0  0  0
   35.0950  -19.9792   37.0074 C   0  0  0  0  0  0  0  0  0  0  0  0
   34.7645  -20.9206   37.8920 C   0  0  0  0  0  0  0  0  0  0  0  0
   33.2989  -21.2886   37.8485 C   0  0  0  0  0  0  0  0  0  0  0  0
   33.0669  -21.7444   36.4309 C   0  0  0  0  0  0  0  0  0  0  0  0
   33.8060  -22.9784   36.1821 N   0  0  0  0  0  0  0  0  0  0  0  0
   33.4532  -20.6636   35.4592 C   0  0  0  0  0  0  0  0  0  0  0  0
   34.1604  -23.3926   37.0721 H   0  0  0  0  0  0  0  0  0  0  0  0
   33.1487  -23.6810   35.7270 H   0  0  0  0  0  0  0  0  0  0  0  0
   32.2864  -20.4383   34.6373 N   0  0  0  0  0  0  0  0  0  0  0  0
   31.2746  -19.5159   34.9789 C   0  0  0  0  0  0  0  0  0  0  0  0
   30.0750  -19.2787   34.1422 C   0  0  0  0  0  0  0  0  0  0  0  0
   31.3918  -18.8614   36.0434 O   0  0  0  0  0  0  0  0  0  0  0  0
   32.1974  -20.9853   33.7567 H   0  0  0  0  0  0  0  0  0  0  0  0
   35.6505  -21.5726   38.8078 C   0  0  0  0  0  0  0  0  0  0  0  0
   36.2292  -20.9759   39.7589 O   0  0  0  0  0  0  0  0  0  0  0  0
   35.8908  -22.9395   38.6457 O   0  0  0  0  0  0  0  0  0  0  0  0
   35.9776  -23.4827   39.5098 H   0  0  0  0  0  0  0  0  0  0  0  0
   34.5417  -18.5197   35.2842 O   0  0  0  0  0  0  0  0  0  0  0  0
   34.8939  -17.2667   35.7961 C   0  0  0  0  0  0  0  0  0  0  0  0
   36.2052  -16.7390   35.3678 C   0  0  0  0  0  0  0  0  0  0  0  0
   36.8757  -17.6843   34.3691 C   0  0  0  0  0  0  0  0  0  0  0  0
   33.8072  -16.2861   35.7280 C   0  0  0  0  0  0  0  0  0  0  0  0
   33.9716  -14.8374   35.8519 C   0  0  0  0  0  0  0  0  0  0  0  0
   34.1930  -14.2956   37.1988 C   0  0  0  0  0  0  0  0  0  0  0  0
   34.6591  -12.8017   37.0858 C   0  0  0  0  0  0  0  0  0  0  0  0
   36.1158  -12.8944   36.6784 C   0  0  0  0  0  0  0  0  0  0  0  0
   38.3022  -13.3520   37.6438 C   0  0  0  0  0  0  0  0  0  0  0  0
   36.8887  -13.8383   37.5504 C   0  0  0  0  0  0  0  0  0  0  0  0
 28 29  1  0  0  0
 29 27  1  0  0  0
 27 26  1  0  0  0
 26 25  1  0  0  0
 25 24  1  0  0  0
 24 23  1  0  0  0
 23 20  1  0  0  0
 20 21  1  0  0  0
 21 22  1  0  0  0
 20 19  1  0  0  0
 19  1  1  0  0  0
  1  2  1  0  0  0
  2  3  2  0  0  0
  3 15  1  0  0  0
 15 16  2  0  0  0
 15 17  1  0  0  0
  3  4  1  0  0  0
  4  5  1  0  0  0
  5  6  1  0  0  0
  5  7  1  0  0  0
  7 10  1  0  0  0
 10 11  1  0  0  0
 11 12  1  0  0  0
 11 13  2  0  0  0
  7  1  1  0  0  0
 17 18  1  0  0  0
  6  8  1  0  0  0
  6  9  1  0  0  0
 10 14  1  0  0  0
M  END
> <minimizedAffinity>
-5.56914

> <CNNscore>
0.3761710823

> <CNNaffinity>
4.9958257675

> <CNN_VS>
1.8792852163

> <CNNaffinity_variance>
0.1424657851

$$$$
[H]OC(=O)C1=C([H])[C@@]([H])(O[C@@]([H])(C([H])([H])C([H])([H])[H])C([H])([H])C([H])([H])C([H])([H])C([H])([H])C([H])([H])C([H])([H])C([H])([H])[H])[C@]([H])(N([H])C(=O)C([H])([H])[H])[C@@]([H])(N([H])[H])C1([H])[H]


 29 29  0  0  0  0  0  0  0  0999 V2000
   34.4173  -16.9663   35.7347 C   0  0  0  0  0  0  0  0  0  0  0  0
   35.8112  -17.0572   35.1442 C   0  0  0  0  0  0  0  0  0  0  0  0
   36.4332  -18.2350   35.2063 C   0  0  0  0  0  0  0  0  0  0  0  0
   35.5999  -19.3132   35.8610 C   0  0  0  0  0  0  0  0  0  0  0  0
   34.3487  -19.3827   35.0240 C   0  0  0  0  0  0  0  0  0  0  0  0
   34.6751  -19.8727   33.6882 N   0  0  0  0  0  0  0  0  0  0  0  0
   33.6745  -18.0396   34.9702 C   0  0  0  0  0  0  0  0  0  0  0  0
   35.6422  -20.2638   33.6551 H   0  0  0  0  0  0  0  0  0  0  0  0
   33.9933  -20.6503   33.4367 H   0  0  0  0  0  0  0  0  0  0  0  0
   32.3198  -18.2611   35.4211 N   0  0  0  0  0  0  0  0  0  0  0  0
   31.3774  -19.0060   34.6805 C   0  0  0  0  0  0  0  0  0  0  0  0
   29.9865  -19.2379   35.1352 C   0  0  0  0  0  0  0  0  0  0  0  0
   31.7301  -19.4987   33.5813 O   0  0  0  0  0  0  0  0  0  0  0  0
   32.0361  -17.8489   36.3334 H   0  0  0  0  0  0  0  0  0  0  0  0
   37.7441  -18.5291   34.7126 C   0  0  0  0  0  0  0  0  0  0  0  0
   38.7103  -18.8554   35.4579 O   0  0  0  0  0  0  0  0  0  0  0  0
   37.9718  -18.4528   33.3361 O   0  0  0  0  0  0  0  0  0  0  0  0
   38.5984  -19.1639   32.9475 H   0  0  0  0  0  0  0  0  0  0  0  0
   33.9549  -15.7116   35.5304 O   0  0  0  0  0  0  0  0  0  0  0  0
   34.4069  -14.6985   36.3821 C   0  0  0  0  0  0  0  0  0  0  0  0
   35.6831  -14.0581   36.0044 C   0  0  0  0  0  0  0  0  0  0  0  0
   36.6449  -14.0118   37.1932 C   0  0  0  0  0  0  0  0  0  0  0  0
   33.3566  -13.7512   36.7651 C   0  0  0  0  0  0  0  0  0  0  0  0
   33.2822  -13.0498   38.0471 C   0  0  0  0  0  0  0  0  0  0  0  0
   32.5689  -11.7663   38.0742 C   0  0  0  0  0  0  0  0  0  0  0  0
   31.1837  -11.9287   37.3554 C   0  0  0  0  0  0  0  0  0  0  0  0
   30.6223  -10.5220   37.3034 C   0  0  0  0  0  0  0  0  0  0  0  0
   28.3583  -11.2629   37.8005 C   0  0  0  0  0  0  0  0  0  0  0  0
   29.4583  -10.3423   38.2316 C   0  0  0  0  0  0  0  0  0  0  0  0
 28 29  1  0  0  0
 29 27  1  0  0  0
 27 26  1  0  0  0
 26 25  1  0  0  0
 25 24  1  0  0  0
 24 23  1  0  0  0
 23 20  1  0  0  0
 20 21  1  0  0  0
 21 22  1  0  0  0
 20 19  1  0  0  0
 19  1  1  0  0  0
  1  2  1  0  0  0
  2  3  2  0  0  0
  3 15  1  0  0  0
 15 16  2  0  0  0
 15 17  1  0  0  0
  3  4  1  0  0  0
  4  5  1  0  0  0
  5  6  1  0  0  0
  5  7  1  0  0  0
  7 10  1  0  0  0
 10 11  1  0  0  0
 11 12  1  0  0  0
 11 13  2  0  0  0
  7  1  1  0  0  0
 17 18  1  0  0  0
  6  8  1  0  0  0
  6  9  1  0  0  0
 10 14  1  0  0  0
M  END
> <minimizedAffinity>
-7.34142

> <CNNscore>
0.3563540876

> <CNNaffinity>
5.3041152954

> <CNN_VS>
1.8901431561

> <CNNaffinity_variance>
0.2118082345

$$$$
[H]OC(=O)C1=C([H])[C@@]([H])(O[C@@]([H])(C([H])([H])C([H])([H])[H])C([H])([H])C([H])([H])C([H])([H])C([H])([H])C([H])([H])C([H])([H])C([H])([H])[H])[C@]([H])(N([H])C(=O)C([H])([H])[H])[C@@]([H])(N([H])[H])C1([H])[H]


 29 29  0  0  0  0  0  0  0  0999 V2000
   36.8707  -18.0585   36.6693 C   0  0  0  0  0  0  0  0  0  0  0  0
   35.9409  -18.5349   37.7686 C   0  0  0  0  0  0  0  0  0  0  0  0
   35.6334  -19.8320   37.7990 C   0  0  0  0  0  0  0  0  0  0  0  0
   36.3059  -20.6280   36.7037 C   0  0  0  0  0  0  0  0  0  0  0  0
   37.7792  -20.3954   36.9194 C   0  0  0  0  0  0  0  0  0  0  0  0
   38.1952  -21.0020   38.1803 N   0  0  0  0  0  0  0  0  0  0  0  0
   38.0919  -18.9248   36.8842 C   0  0  0  0  0  0  0  0  0  0  0  0
   37.4560  -21.6352   38.5569 H   0  0  0  0  0  0  0  0  0  0  0  0
   39.0710  -21.5809   38.0049 H   0  0  0  0  0  0  0  0  0  0  0  0
   39.1185  -18.7649   35.8801 N   0  0  0  0  0  0  0  0  0  0  0  0
   38.8586  -18.8584   34.4963 C   0  0  0  0  0  0  0  0  0  0  0  0
   39.9050  -18.6960   33.4601 C   0  0  0  0  0  0  0  0  0  0  0  0
   37.6841  -19.0906   34.1193 O   0  0  0  0  0  0  0  0  0  0  0  0
   40.0893  -18.5729   36.2018 H   0  0  0  0  0  0  0  0  0  0  0  0
   34.7777  -20.4790   38.7467 C   0  0  0  0  0  0  0  0  0  0  0  0
   35.1658  -20.8590   39.8871 O   0  0  0  0  0  0  0  0  0  0  0  0
   33.4438  -20.7041   38.3970 O   0  0  0  0  0  0  0  0  0  0  0  0
   32.7592  -20.5856   39.1498 H   0  0  0  0  0  0  0  0  0  0  0  0
   37.0856  -16.7345   36.8445 O   0  0  0  0  0  0  0  0  0  0  0  0
   35.9769  -15.9149   37.0799 C   0  0  0  0  0  0  0  0  0  0  0  0
   36.2270  -14.7072   37.8925 C   0  0  0  0  0  0  0  0  0  0  0  0
   37.5999  -14.1102   37.5772 C   0  0  0  0  0  0  0  0  0  0  0  0
   35.1727  -15.6684   35.8800 C   0  0  0  0  0  0  0  0  0  0  0  0
   33.8303  -16.1999   35.6425 C   0  0  0  0  0  0  0  0  0  0  0  0
   33.7190  -17.4079   34.8149 C   0  0  0  0  0  0  0  0  0  0  0  0
   32.8504  -18.4744   35.5697 C   0  0  0  0  0  0  0  0  0  0  0  0
   32.1121  -19.2044   34.4659 C   0  0  0  0  0  0  0  0  0  0  0  0
   32.4635  -21.5626   34.9530 C   0  0  0  0  0  0  0  0  0  0  0  0
   32.8320  -20.4445   34.0270 C   0  0  0  0  0  0  0  0  0  0  0  0
 28 29  1  0  0  0
 29 27  1  0  0  0
 27 26  1  0  0  0
 26 25  1  0  0  0
 25 24  1  0  0  0
 24 23  1  0  0  0
 23 20  1  0  0  0
 20 21  1  0  0  0
 21 22  1  0  0  0
 20 19  1  0  0  0
 19  1  1  0  0  0
  1  2  1  0  0  0
  2  3  2  0  0  0
  3 15  1  0  0  0
 15 16  2  0  0  0
 15 17  1  0  0  0
  3  4  1  0  0  0
  4  5  1  0  0  0
  5  6  1  0  0  0
  5  7  1  0  0  0
  7 10  1  0  0  0
 10 11  1  0  0  0
 11 12  1  0  0  0
 11 13  2  0  0  0
  7  1  1  0  0  0
 17 18  1  0  0  0
  6  8  1  0  0  0
  6  9  1  0  0  0
 10 14  1  0  0  0
M  END
> <minimizedAffinity>
-5.39625

> <CNNscore>
0.3308430314

> <CNNaffinity>
4.5261044502

> <CNN_VS>
1.4974300861

> <CNNaffinity_variance>
0.5736817122

$$$$
[H]OC(=O)C1=C([H])[C@@]([H])(O[C@@]([H])(C([H])([H])C([H])([H])[H])C([H])([H])C([H])([H])C([H])([H])C([H])([H])C([H])([H])C([H])([H])C([H])([H])[H])[C@]([H])(N([H])C(=O)C([H])([H])[H])[C@@]([H])(N([H])[H])C1([H])[H]


 29 29  0  0  0  0  0  0  0  0999 V2000
   35.4538  -20.2864   37.0477 C   0  0  0  0  0  0  0  0  0  0  0  0
   35.0346  -19.9057   38.4546 C   0  0  0  0  0  0  0  0  0  0  0  0
   35.0793  -20.8541   39.3908 C   0  0  0  0  0  0  0  0  0  0  0  0
   35.5757  -22.1828   38.8675 C   0  0  0  0  0  0  0  0  0  0  0  0
   36.9424  -21.8808   38.3091 C   0  0  0  0  0  0  0  0  0  0  0  0
   37.8459  -21.5043   39.3920 N   0  0  0  0  0  0  0  0  0  0  0  0
   36.8584  -20.8056   37.2609 C   0  0  0  0  0  0  0  0  0  0  0  0
   37.4297  -21.7216   40.3241 H   0  0  0  0  0  0  0  0  0  0  0  0
   38.7462  -22.0631   39.2917 H   0  0  0  0  0  0  0  0  0  0  0  0
   37.4729  -21.3614   36.0773 N   0  0  0  0  0  0  0  0  0  0  0  0
   38.4590  -20.6795   35.3331 C   0  0  0  0  0  0  0  0  0  0  0  0
   39.0941  -21.2418   34.1183 C   0  0  0  0  0  0  0  0  0  0  0  0
   38.8196  -19.5395   35.7151 O   0  0  0  0  0  0  0  0  0  0  0  0
   37.1678  -22.3069   35.7678 H   0  0  0  0  0  0  0  0  0  0  0  0
   34.7263  -20.7023   40.7697 C   0  0  0  0  0  0  0  0  0  0  0  0
   33.6012  -20.2779   41.1563 O   0  0  0  0  0  0  0  0  0  0  0  0
   35.6715  -21.0398   41.7418 O   0  0  0  0  0  0  0  0  0  0  0  0
   35.3032  -21.4921   42.5840 H   0  0  0  0  0  0  0  0  0  0  0  0
   35.3772  -19.1807   36.2723 O   0  0  0  0  0  0  0  0  0  0  0  0
   34.4727  -19.1883   35.2055 C   0  0  0  0  0  0  0  0  0  0  0  0
   33.2278  -19.9539   35.4191 C   0  0  0  0  0  0  0  0  0  0  0  0
   32.7443  -20.5875   34.1132 C   0  0  0  0  0  0  0  0  0  0  0  0
   34.2625  -17.8643   34.6139 C   0  0  0  0  0  0  0  0  0  0  0  0
   33.6979  -16.7097   35.3134 C   0  0  0  0  0  0  0  0  0  0  0  0
   34.6210  -15.8750   36.0930 C   0  0  0  0  0  0  0  0  0  0  0  0
   33.8698  -14.5853   36.5768 C   0  0  0  0  0  0  0  0  0  0  0  0
   34.8439  -13.9198   37.5281 C   0  0  0  0  0  0  0  0  0  0  0  0
   35.1842  -11.9149   36.1916 C   0  0  0  0  0  0  0  0  0  0  0  0
   35.8686  -13.0973   36.8055 C   0  0  0  0  0  0  0  0  0  0  0  0
 28 29  1  0  0  0
 29 27  1  0  0  0
 27 26  1  0  0  0
 26 25  1  0  0  0
 25 24  1  0  0  0
 24 23  1  0  0  0
 23 20  1  0  0  0
 20 21  1  0  0  0
 21 22  1  0  0  0
 20 19  1  0  0  0
 19  1  1  0  0  0
  1  2  1  0  0  0
  2  3  2  0  0  0
  3 15  1  0  0  0
 15 16  2  0  0  0
 15 17  1  0  0  0
  3  4  1  0  0  0
  4  5  1  0  0  0
  5  6  1  0  0  0
  5  7  1  0  0  0
  7 10  1  0  0  0
 10 11  1  0  0  0
 11 12  1  0  0  0
 11 13  2  0  0  0
  7  1  1  0  0  0
 17 18  1  0  0  0
  6  8  1  0  0  0
  6  9  1  0  0  0
 10 14  1  0  0  0
M  END
> <minimizedAffinity>
-4.90364

> <CNNscore>
0.3276391625

> <CNNaffinity>
4.5882339478

> <CNN_VS>
1.5032851696

> <CNNaffinity_variance>
0.2274312228

$$$$
[H]OC(=O)C1=C([H])[C@@]([H])(O[C@@]([H])(C([H])([H])C([H])([H])[H])C([H])([H])C([H])([H])C([H])([H])C([H])([H])C([H])([H])C([H])([H])C([H])([H])[H])[C@]([H])(N([H])C(=O)C([H])([H])[H])[C@@]([H])(N([H])[H])C1([H])[H]


 29 29  0  0  0  0  0  0  0  0999 V2000
   39.4981  -19.4366   35.2151 C   0  0  0  0  0  0  0  0  0  0  0  0
   39.2467  -20.9305   35.1428 C   0  0  0  0  0  0  0  0  0  0  0  0
   40.0071  -21.6457   34.3132 C   0  0  0  0  0  0  0  0  0  0  0  0
   41.0336  -20.8122   33.5804 C   0  0  0  0  0  0  0  0  0  0  0  0
   41.8473  -20.1696   34.6740 C   0  0  0  0  0  0  0  0  0  0  0  0
   42.5938  -21.1927   35.3998 N   0  0  0  0  0  0  0  0  0  0  0  0
   40.9613  -19.3755   35.5937 C   0  0  0  0  0  0  0  0  0  0  0  0
   42.5765  -22.1045   34.8923 H   0  0  0  0  0  0  0  0  0  0  0  0
   43.6071  -20.8777   35.4829 H   0  0  0  0  0  0  0  0  0  0  0  0
   41.5141  -18.0408   35.6170 N   0  0  0  0  0  0  0  0  0  0  0  0
   42.5874  -17.6700   36.4547 C   0  0  0  0  0  0  0  0  0  0  0  0
   43.1603  -16.3040   36.4851 C   0  0  0  0  0  0  0  0  0  0  0  0
   43.0851  -18.5369   37.2138 O   0  0  0  0  0  0  0  0  0  0  0  0
   41.0952  -17.3285   34.9846 H   0  0  0  0  0  0  0  0  0  0  0  0
   39.9301  -23.0586   34.0973 C   0  0  0  0  0  0  0  0  0  0  0  0
   38.8401  -23.6833   33.9671 O   0  0  0  0  0  0  0  0  0  0  0  0
   41.1193  -23.7888   34.0262 O   0  0  0  0  0  0  0  0  0  0  0  0
   41.1349  -24.5502   33.3411 H   0  0  0  0  0  0  0  0  0  0  0  0
   38.6587  -18.9130   36.1376 O   0  0  0  0  0  0  0  0  0  0  0  0
   37.7023  -17.9885   35.7053 C   0  0  0  0  0  0  0  0  0  0  0  0
   37.3086  -18.0823   34.2848 C   0  0  0  0  0  0  0  0  0  0  0  0
   35.9694  -18.8066   34.1350 C   0  0  0  0  0  0  0  0  0  0  0  0
   36.5723  -17.8487   36.6276 C   0  0  0  0  0  0  0  0  0  0  0  0
   35.9665  -16.5792   37.0306 C   0  0  0  0  0  0  0  0  0  0  0  0
   36.8597  -15.5466   37.5717 C   0  0  0  0  0  0  0  0  0  0  0  0
   36.7648  -14.2602   36.6785 C   0  0  0  0  0  0  0  0  0  0  0  0
   35.2787  -14.0747   36.4468 C   0  0  0  0  0  0  0  0  0  0  0  0
   33.6010  -12.9959   37.8408 C   0  0  0  0  0  0  0  0  0  0  0  0
   34.7864  -12.7537   36.9579 C   0  0  0  0  0  0  0  0  0  0  0  0
 28 29  1  0  0  0
 29 27  1  0  0  0
 27 26  1  0  0  0
 26 25  1  0  0  0
 25 24  1  0  0  0
 24 23  1  0  0  0
 23 20  1  0  0  0
 20 21  1  0  0  0
 21 22  1  0  0  0
 20 19  1  0  0  0
 19  1  1  0  0  0
  1  2  1  0  0  0
  2  3  2  0  0  0
  3 15  1  0  0  0
 15 16  2  0  0  0
 15 17  1  0  0  0
  3  4  1  0  0  0
  4  5  1  0  0  0
  5  6  1  0  0  0
  5  7  1  0  0  0
  7 10  1  0  0  0
 10 11  1  0  0  0
 11 12  1  0  0  0
 11 13  2  0  0  0
  7  1  1  0  0  0
 17 18  1  0  0  0
  6  8  1  0  0  0
  6  9  1  0  0  0
 10 14  1  0  0  0
M  END
> <minimizedAffinity>
-5.33297

> <CNNscore>
0.3223206401

> <CNNaffinity>
4.7995223999

> <CNN_VS>
1.5469851494

> <CNNaffinity_variance>
0.0864846483

$$$$
[H]OC(=O)C1=C([H])[C@@]([H])(O[C@@]([H])(C([H])([H])C([H])([H])[H])C([H])([H])C([H])([H])C([H])([H])C([H])([H])C([H])([H])C([H])([H])C([H])([H])[H])[C@]([H])(N([H])C(=O)C([H])([H])[H])[C@@]([H])(N([H])[H])C1([H])[H]


 29 29  0  0  0  0  0  0  0  0999 V2000
   36.0760  -19.0727   36.6896 C   0  0  0  0  0  0  0  0  0  0  0  0
   35.4275  -19.2920   38.0428 C   0  0  0  0  0  0  0  0  0  0  0  0
   35.5120  -20.5101   38.5786 C   0  0  0  0  0  0  0  0  0  0  0  0
   36.2834  -21.4853   37.7186 C   0  0  0  0  0  0  0  0  0  0  0  0
   37.6398  -20.8500   37.5526 C   0  0  0  0  0  0  0  0  0  0  0  0
   38.3262  -20.8084   38.8403 N   0  0  0  0  0  0  0  0  0  0  0  0
   37.5097  -19.4776   36.9515 C   0  0  0  0  0  0  0  0  0  0  0  0
   37.8390  -21.4014   39.5475 H   0  0  0  0  0  0  0  0  0  0  0  0
   39.3122  -21.1878   38.7109 H   0  0  0  0  0  0  0  0  0  0  0  0
   38.3505  -19.4816   35.7765 N   0  0  0  0  0  0  0  0  0  0  0  0
   39.7217  -19.1505   35.8138 C   0  0  0  0  0  0  0  0  0  0  0  0
   40.5911  -19.1518   34.6140 C   0  0  0  0  0  0  0  0  0  0  0  0
   40.2353  -18.8385   36.9158 O   0  0  0  0  0  0  0  0  0  0  0  0
   37.9163  -19.7413   34.8672 H   0  0  0  0  0  0  0  0  0  0  0  0
   34.9698  -20.9227   39.8374 C   0  0  0  0  0  0  0  0  0  0  0  0
   33.7521  -20.7910   40.1461 O   0  0  0  0  0  0  0  0  0  0  0  0
   35.8275  -21.5015   40.7763 O   0  0  0  0  0  0  0  0  0  0  0  0
   35.4336  -22.2713   41.3255 H   0  0  0  0  0  0  0  0  0  0  0  0
   35.9141  -17.7731   36.3512 O   0  0  0  0  0  0  0  0  0  0  0  0
   34.6717  -17.3759   35.8463 C   0  0  0  0  0  0  0  0  0  0  0  0
   34.3867  -15.9276   35.8968 C   0  0  0  0  0  0  0  0  0  0  0  0
   35.6650  -15.1270   36.1529 C   0  0  0  0  0  0  0  0  0  0  0  0
   34.3392  -18.0032   34.5645 C   0  0  0  0  0  0  0  0  0  0  0  0
   33.3516  -19.0668   34.3788 C   0  0  0  0  0  0  0  0  0  0  0  0
   32.5377  -19.4430   35.5419 C   0  0  0  0  0  0  0  0  0  0  0  0
   31.0587  -18.9721   35.3129 C   0  0  0  0  0  0  0  0  0  0  0  0
   30.3304  -20.2267   34.8746 C   0  0  0  0  0  0  0  0  0  0  0  0
   28.6586  -20.8904   36.5137 C   0  0  0  0  0  0  0  0  0  0  0  0
   30.0500  -21.1491   36.0232 C   0  0  0  0  0  0  0  0  0  0  0  0
 28 29  1  0  0  0
 29 27  1  0  0  0
 27 26  1  0  0  0
 26 25  1  0  0  0
 25 24  1  0  0  0
 24 23  1  0  0  0
 23 20  1  0  0  0
 20 21  1  0  0  0
 21 22  1  0  0  0
 20 19  1  0  0  0
 19  1  1  0  0  0
  1  2  1  0  0  0
  2  3  2  0  0  0
  3 15  1  0  0  0
 15 16  2  0  0  0
 15 17  1  0  0  0
  3  4  1  0  0  0
  4  5  1  0  0  0
  5  6  1  0  0  0
  5  7  1  0  0  0
  7 10  1  0  0  0
 10 11  1  0  0  0
 11 12  1  0  0  0
 11 13  2  0  0  0
  7  1  1  0  0  0
 17 18  1  0  0  0
  6  8  1  0  0  0
  6  9  1  0  0  0
 10 14  1  0  0  0
M  END
> <minimizedAffinity>
-4.49267

> <CNNscore>
0.3135172427

> <CNNaffinity>
4.4468855858

> <CNN_VS>
1.3941752911

> <CNNaffinity_variance>
0.4745006561

$$$$
[H]OC(=O)C1=C([H])[C@@]([H])(O[C@@]([H])(C([H])([H])C([H])([H])[H])C([H])([H])C([H])([H])C([H])([H])C([H])([H])C([H])([H])C([H])([H])C([H])([H])[H])[C@]([H])(N([H])C(=O)C([H])([H])[H])[C@@]([H])(N([H])[H])C1([H])[H]


 29 29  0  0  0  0  0  0  0  0999 V2000
   33.3478  -20.8479   36.4839 C   0  0  0  0  0  0  0  0  0  0  0  0
   33.9257  -19.4614   36.6933 C   0  0  0  0  0  0  0  0  0  0  0  0
   33.8159  -18.5883   35.6915 C   0  0  0  0  0  0  0  0  0  0  0  0
   33.0922  -19.1511   34.4894 C   0  0  0  0  0  0  0  0  0  0  0  0
   31.7449  -19.5669   35.0214 C   0  0  0  0  0  0  0  0  0  0  0  0
   30.9926  -18.3868   35.4364 N   0  0  0  0  0  0  0  0  0  0  0  0
   31.9033  -20.5465   36.1514 C   0  0  0  0  0  0  0  0  0  0  0  0
   31.4436  -17.5108   35.0922 H   0  0  0  0  0  0  0  0  0  0  0  0
   30.0154  -18.4439   35.0183 H   0  0  0  0  0  0  0  0  0  0  0  0
   31.1246  -21.7053   35.7794 N   0  0  0  0  0  0  0  0  0  0  0  0
   29.7409  -21.8133   36.0344 C   0  0  0  0  0  0  0  0  0  0  0  0
   28.9349  -22.9977   35.6565 C   0  0  0  0  0  0  0  0  0  0  0  0
   29.1593  -20.8613   36.6096 O   0  0  0  0  0  0  0  0  0  0  0  0
   31.6151  -22.4898   35.3031 H   0  0  0  0  0  0  0  0  0  0  0  0
   34.2930  -17.2388   35.6863 C   0  0  0  0  0  0  0  0  0  0  0  0
   35.5187  -16.9352   35.6563 O   0  0  0  0  0  0  0  0  0  0  0  0
   33.3586  -16.2003   35.7157 O   0  0  0  0  0  0  0  0  0  0  0  0
   33.5880  -15.3777   35.1500 H   0  0  0  0  0  0  0  0  0  0  0  0
   33.5244  -21.5538   37.6242 O   0  0  0  0  0  0  0  0  0  0  0  0
   34.6880  -21.3237   38.3653 C   0  0  0  0  0  0  0  0  0  0  0  0
   34.5258  -21.3030   39.8332 C   0  0  0  0  0  0  0  0  0  0  0  0
   35.0653  -19.9994   40.4250 C   0  0  0  0  0  0  0  0  0  0  0  0
   35.8344  -22.1117   37.9047 C   0  0  0  0  0  0  0  0  0  0  0  0
   37.0048  -21.5703   37.2132 C   0  0  0  0  0  0  0  0  0  0  0  0
   37.5957  -20.3376   37.7496 C   0  0  0  0  0  0  0  0  0  0  0  0
   37.7606  -19.2948   36.5890 C   0  0  0  0  0  0  0  0  0  0  0  0
   37.8526  -20.1417   35.3357 C   0  0  0  0  0  0  0  0  0  0  0  0
   38.2083  -18.3339   33.7460 C   0  0  0  0  0  0  0  0  0  0  0  0
   37.2818  -19.4437   34.1374 C   0  0  0  0  0  0  0  0  0  0  0  0
 28 29  1  0  0  0
 29 27  1  0  0  0
 27 26  1  0  0  0
 26 25  1  0  0  0
 25 24  1  0  0  0
 24 23  1  0  0  0
 23 20  1  0  0  0
 20 21  1  0  0  0
 21 22  1  0  0  0
 20 19  1  0  0  0
 19  1  1  0  0  0
  1  2  1  0  0  0
  2  3  2  0  0  0
  3 15  1  0  0  0
 15 16  2  0  0  0
 15 17  1  0  0  0
  3  4  1  0  0  0
  4  5  1  0  0  0
  5  6  1  0  0  0
  5  7  1  0  0  0
  7 10  1  0  0  0
 10 11  1  0  0  0
 11 12  1  0  0  0
 11 13  2  0  0  0
  7  1  1  0  0  0
 17 18  1  0  0  0
  6  8  1  0  0  0
  6  9  1  0  0  0
 10 14  1  0  0  0
M  END
> <minimizedAffinity>
-4.42400

> <CNNscore>
0.2985934019

> <CNNaffinity>
4.6998467445

> <CNN_VS>
1.4033432007

> <CNNaffinity_variance>
0.2055537701

$$$$
[H]c1c([H])c(-c2c([H])c([H])c(C([H])(C(=O)N([H])C([H])([H])C([H])([H])C([H])([H])C([H])([H])C([H])([H])C([H])([H])N([H])c3c4c(nc5c([H])c([H])c([H])c([H])c35)C([H])([H])C([H])([H])C([H])([H])C4([H])[H])C([H])([H])[H])c([H])c2F)c([H])c([H])c1OC([H])([H])C([H])([H])C([H])([H])C([H])([H])C([H])([H])C([H])([H])O[N+](=O)[O-]


 52 56  0  0  0  0  0  0  0  0999 V2000
   34.8864  -11.7156   36.1029 C   0  0  0  0  0  0  0  0  0  0  0  0
   34.6439  -12.5432   37.3615 C   0  0  0  0  0  0  0  0  0  0  0  0
   35.1954  -13.8890   37.1117 C   0  0  0  0  0  0  0  0  0  0  0  0
   36.4202  -14.2230   37.6397 C   0  0  0  0  0  0  0  0  0  0  0  0
   36.9945  -15.4758   37.4190 C   0  0  0  0  0  0  0  0  0  0  0  0
   36.3259  -16.3874   36.6636 C   0  0  0  0  0  0  0  0  0  0  0  0
   35.1011  -16.0743   36.1268 C   0  0  0  0  0  0  0  0  0  0  0  0
   34.4248  -16.9684   35.3671 F   0  0  0  0  0  0  0  0  0  0  0  0
   34.5317  -14.8138   36.3534 C   0  0  0  0  0  0  0  0  0  0  0  0
   36.8961  -17.6999   36.4223 C   0  0  0  0  0  0  0  0  0  0  0  0
   36.7305  -18.7413   37.3075 C   0  0  0  0  0  0  0  0  0  0  0  0
   37.2856  -19.9984   37.0472 C   0  0  0  0  0  0  0  0  0  0  0  0
   38.0166  -20.2657   35.9150 C   0  0  0  0  0  0  0  0  0  0  0  0
   38.1762  -19.1892   35.0187 C   0  0  0  0  0  0  0  0  0  0  0  0
   37.6273  -17.9675   35.2874 C   0  0  0  0  0  0  0  0  0  0  0  0
   38.5971  -21.4647   35.5880 O   0  0  0  0  0  0  0  0  0  0  0  0
   39.1231  -21.8381   34.3543 C   0  0  0  0  0  0  0  0  0  0  0  0
   40.6172  -21.8590   34.4084 C   0  0  0  0  0  0  0  0  0  0  0  0
   41.0924  -21.9678   35.8274 C   0  0  0  0  0  0  0  0  0  0  0  0
   42.0952  -20.9080   36.1294 C   0  0  0  0  0  0  0  0  0  0  0  0
   41.6151  -19.5192   35.7937 C   0  0  0  0  0  0  0  0  0  0  0  0
   41.2531  -18.7911   37.0556 C   0  0  0  0  0  0  0  0  0  0  0  0
   42.4676  -18.5042   37.7714 O   0  0  0  0  0  0  0  0  0  0  0  0
   43.3778  -17.7062   37.1213 N   0  0  0  0  0  0  0  0  0  0  0  0
   43.0690  -16.6053   36.6287 O   0  0  0  0  0  0  0  0  0  0  0  0
   44.6678  -18.1969   37.0429 O   0  0  0  0  0  0  0  0  0  0  0  0
   33.2522  -12.5026   37.8058 C   0  0  0  0  0  0  0  0  0  0  0  0
   32.9189  -13.0250   38.9276 O   0  0  0  0  0  0  0  0  0  0  0  0
   32.1929  -11.9120   37.0796 N   0  0  0  0  0  0  0  0  0  0  0  0
   32.4156  -11.4741   36.1623 H   0  0  0  0  0  0  0  0  0  0  0  0
   30.8290  -11.8764   37.5326 C   0  0  0  0  0  0  0  0  0  0  0  0
   30.2645  -10.4763   37.5548 C   0  0  0  0  0  0  0  0  0  0  0  0
   29.0485  -10.4268   38.4583 C   0  0  0  0  0  0  0  0  0  0  0  0
   28.9862   -9.0114   39.0355 C   0  0  0  0  0  0  0  0  0  0  0  0
   27.7440   -8.8013   39.8139 C   0  0  0  0  0  0  0  0  0  0  0  0
   27.5106   -9.7400   40.9202 C   0  0  0  0  0  0  0  0  0  0  0  0
   26.2925   -9.6887   41.6098 N   0  0  0  0  0  0  0  0  0  0  0  0
   26.1195  -10.5034   42.3108 H   0  0  0  0  0  0  0  0  0  0  0  0
   25.2294   -8.7842   41.5792 C   0  0  0  0  0  0  0  0  0  0  0  0
   24.1035   -9.0791   40.8363 C   0  0  0  0  0  0  0  0  0  0  0  0
   23.0383   -8.2093   40.8452 C   0  0  0  0  0  0  0  0  0  0  0  0
   23.1124   -7.0695   41.5900 N   0  0  0  0  0  0  0  0  0  0  0  0
   24.1865   -6.7467   42.3256 C   0  0  0  0  0  0  0  0  0  0  0  0
   24.2353   -5.5933   43.0711 C   0  0  0  0  0  0  0  0  0  0  0  0
   25.3349   -5.2796   43.8187 C   0  0  0  0  0  0  0  0  0  0  0  0
   26.4028   -6.1526   43.8088 C   0  0  0  0  0  0  0  0  0  0  0  0
   26.3783   -7.3040   43.0766 C   0  0  0  0  0  0  0  0  0  0  0  0
   25.2588   -7.6138   42.3212 C   0  0  0  0  0  0  0  0  0  0  0  0
   21.8460   -8.5142   40.0472 C   0  0  0  0  0  0  0  0  0  0  0  0
   21.5603   -9.9600   39.8350 C   0  0  0  0  0  0  0  0  0  0  0  0
   22.6110  -10.8973   40.3616 C   0  0  0  0  0  0  0  0  0  0  0  0
   23.9886  -10.3180   40.0292 C   0  0  0  0  0  0  0  0  0  0  0  0
  1  2  1  0  0  0
  2 27  1  0  0  0
 27 28  2  0  0  0
 27 29  1  0  0  0
 29 31  1  0  0  0
 31 32  1  0  0  0
 32 33  1  0  0  0
 33 34  1  0  0  0
 34 35  1  0  0  0
 35 36  1  0  0  0
 36 37  1  0  0  0
 37 39  1  0  0  0
 39 40  2  0  0  0
 40 41  1  0  0  0
 41 42  2  0  0  0
 42 43  1  0  0  0
 43 44  2  0  0  0
 44 45  1  0  0  0
 45 46  2  0  0  0
 46 47  1  0  0  0
 47 48  2  0  0  0
 41 49  1  0  0  0
 49 50  1  0  0  0
 50 51  1  0  0  0
 51 52  1  0  0  0
  2  3  1  0  0  0
  3  4  2  0  0  0
  4  5  1  0  0  0
  5  6  2  0  0  0
  6 10  1  0  0  0
 10 11  2  0  0  0
 11 12  1  0  0  0
 12 13  2  0  0  0
 13 16  1  0  0  0
 16 17  1  0  0  0
 17 18  1  0  0  0
 18 19  1  0  0  0
 19 20  1  0  0  0
 20 21  1  0  0  0
 21 22  1  0  0  0
 22 23  1  0  0  0
 23 24  1  0  0  0
 24 25  2  0  0  0
 24 26  1  0  0  0
 13 14  1  0  0  0
 14 15  2  0  0  0
  6  7  1  0  0  0
  7  8  1  0  0  0
  7  9  2  0  0  0
 48 39  1  0  0  0
  9  3  1  0  0  0
 52 40  1  0  0  0
 15 10  1  0  0  0
 48 43  1  0  0  0
 29 30  1  0  0  0
 37 38  1  0  0  0
M  CHG 1  24   1
M  CHG 1  26  -1
M  END
> <minimizedAffinity>
-8.65957

> <CNNscore>
0.4990029931

> <CNNaffinity>
6.8488502502

> <CNN_VS>
3.4175968170

> <CNNaffinity_variance>
0.2180669010

$$$$
[H]c1c([H])c(-c2c([H])c([H])c(C([H])(C(=O)N([H])C([H])([H])C([H])([H])C([H])([H])C([H])([H])C([H])([H])C([H])([H])N([H])c3c4c(nc5c([H])c([H])c([H])c([H])c35)C([H])([H])C([H])([H])C([H])([H])C4([H])[H])C([H])([H])[H])c([H])c2F)c([H])c([H])c1OC([H])([H])C([H])([H])C([H])([H])C([H])([H])C([H])([H])C([H])([H])O[N+](=O)[O-]


 52 56  0  0  0  0  0  0  0  0999 V2000
   34.8899  -11.6335   36.2333 C   0  0  0  0  0  0  0  0  0  0  0  0
   34.5885  -12.4828   37.4644 C   0  0  0  0  0  0  0  0  0  0  0  0
   35.0927  -13.8425   37.1906 C   0  0  0  0  0  0  0  0  0  0  0  0
   36.3156  -14.2205   37.6927 C   0  0  0  0  0  0  0  0  0  0  0  0
   36.8460  -15.4883   37.4484 C   0  0  0  0  0  0  0  0  0  0  0  0
   36.1355  -16.3700   36.6959 C   0  0  0  0  0  0  0  0  0  0  0  0
   34.9118  -16.0127   36.1847 C   0  0  0  0  0  0  0  0  0  0  0  0
   34.1941  -16.8767   35.4281 F   0  0  0  0  0  0  0  0  0  0  0  0
   34.3866  -14.7376   36.4348 C   0  0  0  0  0  0  0  0  0  0  0  0
   36.6596  -17.6970   36.4304 C   0  0  0  0  0  0  0  0  0  0  0  0
   37.3332  -17.9963   35.2675 C   0  0  0  0  0  0  0  0  0  0  0  0
   37.8338  -19.2822   35.0398 C   0  0  0  0  0  0  0  0  0  0  0  0
   37.6862  -20.3058   35.9442 C   0  0  0  0  0  0  0  0  0  0  0  0
   36.9949  -19.9829   37.1298 C   0  0  0  0  0  0  0  0  0  0  0  0
   36.5125  -18.7219   37.3373 C   0  0  0  0  0  0  0  0  0  0  0  0
   38.1405  -21.5915   35.7961 O   0  0  0  0  0  0  0  0  0  0  0  0
   37.9921  -22.6468   36.6920 C   0  0  0  0  0  0  0  0  0  0  0  0
   39.2543  -23.4442   36.7733 C   0  0  0  0  0  0  0  0  0  0  0  0
   40.4491  -22.5379   36.8193 C   0  0  0  0  0  0  0  0  0  0  0  0
   40.6145  -21.9536   38.1799 C   0  0  0  0  0  0  0  0  0  0  0  0
   40.9617  -20.4869   38.1612 C   0  0  0  0  0  0  0  0  0  0  0  0
   41.7633  -20.1419   39.3826 C   0  0  0  0  0  0  0  0  0  0  0  0
   42.3233  -18.8301   39.1951 O   0  0  0  0  0  0  0  0  0  0  0  0
   43.6827  -18.7753   39.0033 N   0  0  0  0  0  0  0  0  0  0  0  0
   44.1910  -18.4288   37.9208 O   0  0  0  0  0  0  0  0  0  0  0  0
   44.4632  -19.1295   40.0879 O   0  0  0  0  0  0  0  0  0  0  0  0
   33.1903  -12.3989   37.8811 C   0  0  0  0  0  0  0  0  0  0  0  0
   32.8389  -12.8092   39.0432 O   0  0  0  0  0  0  0  0  0  0  0  0
   32.1431  -11.8821   37.0843 N   0  0  0  0  0  0  0  0  0  0  0  0
   32.3806  -11.5359   36.1322 H   0  0  0  0  0  0  0  0  0  0  0  0
   30.7725  -11.8023   37.5105 C   0  0  0  0  0  0  0  0  0  0  0  0
   30.2718  -10.3798   37.5809 C   0  0  0  0  0  0  0  0  0  0  0  0
   29.0871  -10.2981   38.5229 C   0  0  0  0  0  0  0  0  0  0  0  0
   29.0352   -8.8596   39.0413 C   0  0  0  0  0  0  0  0  0  0  0  0
   27.7961   -8.6095   39.8128 C   0  0  0  0  0  0  0  0  0  0  0  0
   27.1721   -9.7887   40.4291 C   0  0  0  0  0  0  0  0  0  0  0  0
   26.2057   -9.6034   41.4261 N   0  0  0  0  0  0  0  0  0  0  0  0
   26.3134  -10.2395   42.3030 H   0  0  0  0  0  0  0  0  0  0  0  0
   25.1058   -8.7493   41.5256 C   0  0  0  0  0  0  0  0  0  0  0  0
   25.2099   -7.5853   42.2609 C   0  0  0  0  0  0  0  0  0  0  0  0
   24.1409   -6.7220   42.3188 C   0  0  0  0  0  0  0  0  0  0  0  0
   22.9953   -7.0308   41.6467 N   0  0  0  0  0  0  0  0  0  0  0  0
   22.8538   -8.1499   40.9212 C   0  0  0  0  0  0  0  0  0  0  0  0
   21.6897   -8.4369   40.2496 C   0  0  0  0  0  0  0  0  0  0  0  0
   21.5616   -9.5791   39.5111 C   0  0  0  0  0  0  0  0  0  0  0  0
   22.6343  -10.4443   39.4539 C   0  0  0  0  0  0  0  0  0  0  0  0
   23.8007  -10.1816   40.1121 C   0  0  0  0  0  0  0  0  0  0  0  0
   23.9213   -9.0207   40.8588 C   0  0  0  0  0  0  0  0  0  0  0  0
   24.2446   -5.4907   43.1091 C   0  0  0  0  0  0  0  0  0  0  0  0
   25.6113   -4.9129   43.2327 C   0  0  0  0  0  0  0  0  0  0  0  0
   26.7089   -5.7493   42.6363 C   0  0  0  0  0  0  0  0  0  0  0  0
   26.4479   -7.2159   42.9893 C   0  0  0  0  0  0  0  0  0  0  0  0
  1  2  1  0  0  0
  2 27  1  0  0  0
 27 28  2  0  0  0
 27 29  1  0  0  0
 29 31  1  0  0  0
 31 32  1  0  0  0
 32 33  1  0  0  0
 33 34  1  0  0  0
 34 35  1  0  0  0
 35 36  1  0  0  0
 36 37  1  0  0  0
 37 39  1  0  0  0
 39 40  2  0  0  0
 40 41  1  0  0  0
 41 42  2  0  0  0
 42 43  1  0  0  0
 43 44  2  0  0  0
 44 45  1  0  0  0
 45 46  2  0  0  0
 46 47  1  0  0  0
 47 48  2  0  0  0
 41 49  1  0  0  0
 49 50  1  0  0  0
 50 51  1  0  0  0
 51 52  1  0  0  0
  2  3  1  0  0  0
  3  4  2  0  0  0
  4  5  1  0  0  0
  5  6  2  0  0  0
  6 10  1  0  0  0
 10 11  2  0  0  0
 11 12  1  0  0  0
 12 13  2  0  0  0
 13 16  1  0  0  0
 16 17  1  0  0  0
 17 18  1  0  0  0
 18 19  1  0  0  0
 19 20  1  0  0  0
 20 21  1  0  0  0
 21 22  1  0  0  0
 22 23  1  0  0  0
 23 24  1  0  0  0
 24 25  2  0  0  0
 24 26  1  0  0  0
 13 14  1  0  0  0
 14 15  2  0  0  0
  6  7  1  0  0  0
  7  8  1  0  0  0
  7  9  2  0  0  0
 48 39  1  0  0  0
  9  3  1  0  0  0
 52 40  1  0  0  0
 15 10  1  0  0  0
 48 43  1  0  0  0
 29 30  1  0  0  0
 37 38  1  0  0  0
M  CHG 1  24   1
M  CHG 1  26  -1
M  END
> <minimizedAffinity>
-8.79950

> <CNNscore>
0.4728944898

> <CNNaffinity>
6.8224458694

> <CNN_VS>
3.2262971401

> <CNNaffinity_variance>
0.2707979083

$$$$
[H]c1c([H])c(-c2c([H])c([H])c(C([H])(C(=O)N([H])C([H])([H])C([H])([H])C([H])([H])C([H])([H])C([H])([H])C([H])([H])N([H])c3c4c(nc5c([H])c([H])c([H])c([H])c35)C([H])([H])C([H])([H])C([H])([H])C4([H])[H])C([H])([H])[H])c([H])c2F)c([H])c([H])c1OC([H])([H])C([H])([H])C([H])([H])C([H])([H])C([H])([H])C([H])([H])O[N+](=O)[O-]


 52 56  0  0  0  0  0  0  0  0999 V2000
   34.2643  -11.0673   36.9688 C   0  0  0  0  0  0  0  0  0  0  0  0
   33.6386  -12.2618   37.6827 C   0  0  0  0  0  0  0  0  0  0  0  0
   34.3850  -13.4626   37.2600 C   0  0  0  0  0  0  0  0  0  0  0  0
   33.7411  -14.4321   36.5277 C   0  0  0  0  0  0  0  0  0  0  0  0
   34.3960  -15.5946   36.1181 C   0  0  0  0  0  0  0  0  0  0  0  0
   35.7021  -15.7719   36.4516 C   0  0  0  0  0  0  0  0  0  0  0  0
   36.3641  -14.8159   37.1826 C   0  0  0  0  0  0  0  0  0  0  0  0
   37.6632  -14.9797   37.5284 F   0  0  0  0  0  0  0  0  0  0  0  0
   35.6989  -13.6515   37.5899 C   0  0  0  0  0  0  0  0  0  0  0  0
   36.4100  -16.9681   36.0345 C   0  0  0  0  0  0  0  0  0  0  0  0
   36.9182  -17.8693   36.9428 C   0  0  0  0  0  0  0  0  0  0  0  0
   37.5909  -19.0178   36.5134 C   0  0  0  0  0  0  0  0  0  0  0  0
   37.7829  -19.3111   35.1850 C   0  0  0  0  0  0  0  0  0  0  0  0
   37.2560  -18.3789   34.2679 C   0  0  0  0  0  0  0  0  0  0  0  0
   36.6011  -17.2621   34.7035 C   0  0  0  0  0  0  0  0  0  0  0  0
   38.4335  -20.4089   34.6820 O   0  0  0  0  0  0  0  0  0  0  0  0
   39.7830  -20.5136   34.3565 C   0  0  0  0  0  0  0  0  0  0  0  0
   40.5772  -20.9340   35.5516 C   0  0  0  0  0  0  0  0  0  0  0  0
   41.7679  -20.0398   35.7350 C   0  0  0  0  0  0  0  0  0  0  0  0
   41.5009  -19.0163   36.7844 C   0  0  0  0  0  0  0  0  0  0  0  0
   42.7145  -18.1964   37.1406 C   0  0  0  0  0  0  0  0  0  0  0  0
   42.6801  -16.8934   36.3961 C   0  0  0  0  0  0  0  0  0  0  0  0
   43.7941  -16.8677   35.4862 O   0  0  0  0  0  0  0  0  0  0  0  0
   44.9149  -16.2031   35.9221 N   0  0  0  0  0  0  0  0  0  0  0  0
   44.9173  -14.9803   36.1567 O   0  0  0  0  0  0  0  0  0  0  0  0
   46.0510  -16.9731   36.0874 O   0  0  0  0  0  0  0  0  0  0  0  0
   32.1885  -12.3263   37.5130 C   0  0  0  0  0  0  0  0  0  0  0  0
   31.6838  -12.5046   36.3486 O   0  0  0  0  0  0  0  0  0  0  0  0
   31.2497  -12.2060   38.5629 N   0  0  0  0  0  0  0  0  0  0  0  0
   31.6129  -12.0607   39.5272 H   0  0  0  0  0  0  0  0  0  0  0  0
   29.8254  -12.2760   38.3802 C   0  0  0  0  0  0  0  0  0  0  0  0
   29.2429  -10.9757   37.8811 C   0  0  0  0  0  0  0  0  0  0  0  0
   28.0088  -10.6226   38.6872 C   0  0  0  0  0  0  0  0  0  0  0  0
   28.4596   -9.6510   39.7797 C   0  0  0  0  0  0  0  0  0  0  0  0
   28.0789  -10.1389   41.1250 C   0  0  0  0  0  0  0  0  0  0  0  0
   27.5609   -9.1256   42.0549 C   0  0  0  0  0  0  0  0  0  0  0  0
   26.7747   -8.0807   41.5526 N   0  0  0  0  0  0  0  0  0  0  0  0
   27.2729   -7.4228   40.8426 H   0  0  0  0  0  0  0  0  0  0  0  0
   25.4510   -7.7019   41.7839 C   0  0  0  0  0  0  0  0  0  0  0  0
   24.4324   -8.3193   41.0855 C   0  0  0  0  0  0  0  0  0  0  0  0
   23.1263   -7.9786   41.3487 C   0  0  0  0  0  0  0  0  0  0  0  0
   22.8596   -7.0361   42.2975 N   0  0  0  0  0  0  0  0  0  0  0  0
   23.8192   -6.4140   42.9982 C   0  0  0  0  0  0  0  0  0  0  0  0
   23.5244   -5.4698   43.9523 C   0  0  0  0  0  0  0  0  0  0  0  0
   24.5125   -4.8471   44.6610 C   0  0  0  0  0  0  0  0  0  0  0  0
   25.8221   -5.1895   44.3960 C   0  0  0  0  0  0  0  0  0  0  0  0
   26.1402   -6.1238   43.4535 C   0  0  0  0  0  0  0  0  0  0  0  0
   25.1314   -6.7500   42.7395 C   0  0  0  0  0  0  0  0  0  0  0  0
   22.0430   -8.6240   40.5996 C   0  0  0  0  0  0  0  0  0  0  0  0
   22.3176  -10.0089   40.1265 C   0  0  0  0  0  0  0  0  0  0  0  0
   23.7177  -10.4969   40.3742 C   0  0  0  0  0  0  0  0  0  0  0  0
   24.6914   -9.3582   40.0593 C   0  0  0  0  0  0  0  0  0  0  0  0
  1  2  1  0  0  0
  2 27  1  0  0  0
 27 28  2  0  0  0
 27 29  1  0  0  0
 29 31  1  0  0  0
 31 32  1  0  0  0
 32 33  1  0  0  0
 33 34  1  0  0  0
 34 35  1  0  0  0
 35 36  1  0  0  0
 36 37  1  0  0  0
 37 39  1  0  0  0
 39 40  2  0  0  0
 40 41  1  0  0  0
 41 42  2  0  0  0
 42 43  1  0  0  0
 43 44  2  0  0  0
 44 45  1  0  0  0
 45 46  2  0  0  0
 46 47  1  0  0  0
 47 48  2  0  0  0
 41 49  1  0  0  0
 49 50  1  0  0  0
 50 51  1  0  0  0
 51 52  1  0  0  0
  2  3  1  0  0  0
  3  4  2  0  0  0
  4  5  1  0  0  0
  5  6  2  0  0  0
  6 10  1  0  0  0
 10 11  2  0  0  0
 11 12  1  0  0  0
 12 13  2  0  0  0
 13 16  1  0  0  0
 16 17  1  0  0  0
 17 18  1  0  0  0
 18 19  1  0  0  0
 19 20  1  0  0  0
 20 21  1  0  0  0
 21 22  1  0  0  0
 22 23  1  0  0  0
 23 24  1  0  0  0
 24 25  2  0  0  0
 24 26  1  0  0  0
 13 14  1  0  0  0
 14 15  2  0  0  0
  6  7  1  0  0  0
  7  8  1  0  0  0
  7  9  2  0  0  0
 48 39  1  0  0  0
  9  3  1  0  0  0
 52 40  1  0  0  0
 15 10  1  0  0  0
 48 43  1  0  0  0
 29 30  1  0  0  0
 37 38  1  0  0  0
M  CHG 1  24   1
M  CHG 1  26  -1
M  END
> <minimizedAffinity>
-8.79964

> <CNNscore>
0.4575179219

> <CNNaffinity>
6.6508378983

> <CNN_VS>
3.0428774357

> <CNNaffinity_variance>
0.2725512385

$$$$
[H]c1c([H])c(-c2c([H])c([H])c(C([H])(C(=O)N([H])C([H])([H])C([H])([H])C([H])([H])C([H])([H])C([H])([H])C([H])([H])N([H])c3c4c(nc5c([H])c([H])c([H])c([H])c35)C([H])([H])C([H])([H])C([H])([H])C4([H])[H])C([H])([H])[H])c([H])c2F)c([H])c([H])c1OC([H])([H])C([H])([H])C([H])([H])C([H])([H])C([H])([H])C([H])([H])O[N+](=O)[O-]


 52 56  0  0  0  0  0  0  0  0999 V2000
   34.3174  -11.1047   36.8560 C   0  0  0  0  0  0  0  0  0  0  0  0
   33.6876  -12.2516   37.6406 C   0  0  0  0  0  0  0  0  0  0  0  0
   34.3968  -13.4864   37.2533 C   0  0  0  0  0  0  0  0  0  0  0  0
   33.7415  -14.4300   36.4977 C   0  0  0  0  0  0  0  0  0  0  0  0
   34.3605  -15.6224   36.1194 C   0  0  0  0  0  0  0  0  0  0  0  0
   35.6424  -15.8557   36.5079 C   0  0  0  0  0  0  0  0  0  0  0  0
   36.3152  -14.9264   37.2630 C   0  0  0  0  0  0  0  0  0  0  0  0
   37.5902  -15.1460   37.6635 F   0  0  0  0  0  0  0  0  0  0  0  0
   35.6861  -13.7317   37.6385 C   0  0  0  0  0  0  0  0  0  0  0  0
   36.3131  -17.0841   36.1244 C   0  0  0  0  0  0  0  0  0  0  0  0
   36.4953  -18.1229   37.0095 C   0  0  0  0  0  0  0  0  0  0  0  0
   37.1397  -19.2988   36.6119 C   0  0  0  0  0  0  0  0  0  0  0  0
   37.6217  -19.4856   35.3390 C   0  0  0  0  0  0  0  0  0  0  0  0
   37.4266  -18.4131   34.4448 C   0  0  0  0  0  0  0  0  0  0  0  0
   36.7949  -17.2713   34.8488 C   0  0  0  0  0  0  0  0  0  0  0  0
   38.2675  -20.6017   34.8713 O   0  0  0  0  0  0  0  0  0  0  0  0
   39.5086  -20.6566   34.2429 C   0  0  0  0  0  0  0  0  0  0  0  0
   40.5889  -20.9198   35.2426 C   0  0  0  0  0  0  0  0  0  0  0  0
   41.4962  -19.7312   35.3643 C   0  0  0  0  0  0  0  0  0  0  0  0
   41.0247  -18.8172   36.4425 C   0  0  0  0  0  0  0  0  0  0  0  0
   40.7151  -19.5288   37.7348 C   0  0  0  0  0  0  0  0  0  0  0  0
   41.9898  -19.8005   38.4797 C   0  0  0  0  0  0  0  0  0  0  0  0
   42.0269  -18.9408   39.6325 O   0  0  0  0  0  0  0  0  0  0  0  0
   42.3115  -19.5493   40.8311 N   0  0  0  0  0  0  0  0  0  0  0  0
   42.5345  -18.9033   41.8718 O   0  0  0  0  0  0  0  0  0  0  0  0
   42.3373  -20.9314   40.8186 O   0  0  0  0  0  0  0  0  0  0  0  0
   32.2323  -12.2919   37.5136 C   0  0  0  0  0  0  0  0  0  0  0  0
   31.6909  -12.4769   36.3669 O   0  0  0  0  0  0  0  0  0  0  0  0
   31.3265  -12.1401   38.5883 N   0  0  0  0  0  0  0  0  0  0  0  0
   31.7201  -11.9882   39.5396 H   0  0  0  0  0  0  0  0  0  0  0  0
   29.8966  -12.1865   38.4477 C   0  0  0  0  0  0  0  0  0  0  0  0
   29.3254  -10.8896   37.9272 C   0  0  0  0  0  0  0  0  0  0  0  0
   28.0237  -10.5791   38.6392 C   0  0  0  0  0  0  0  0  0  0  0  0
   28.3450   -9.5317   39.7071 C   0  0  0  0  0  0  0  0  0  0  0  0
   28.2538  -10.1058   41.0691 C   0  0  0  0  0  0  0  0  0  0  0  0
   27.4771   -9.3285   42.0450 C   0  0  0  0  0  0  0  0  0  0  0  0
   26.6799   -8.2699   41.5910 N   0  0  0  0  0  0  0  0  0  0  0  0
   27.1812   -7.5550   40.9408 H   0  0  0  0  0  0  0  0  0  0  0  0
   25.3418   -7.9368   41.8092 C   0  0  0  0  0  0  0  0  0  0  0  0
   25.0112   -7.0792   42.8396 C   0  0  0  0  0  0  0  0  0  0  0  0
   23.6979   -6.7148   43.0235 C   0  0  0  0  0  0  0  0  0  0  0  0
   22.7438   -7.2068   42.1827 N   0  0  0  0  0  0  0  0  0  0  0  0
   23.0230   -8.0408   41.1701 C   0  0  0  0  0  0  0  0  0  0  0  0
   22.0435   -8.5202   40.3339 C   0  0  0  0  0  0  0  0  0  0  0  0
   22.3436   -9.3661   39.3040 C   0  0  0  0  0  0  0  0  0  0  0  0
   23.6611   -9.7311   39.1206 C   0  0  0  0  0  0  0  0  0  0  0  0
   24.6515   -9.2686   39.9376 C   0  0  0  0  0  0  0  0  0  0  0  0
   24.3377   -8.4111   40.9797 C   0  0  0  0  0  0  0  0  0  0  0  0
   23.3425   -5.8136   44.1248 C   0  0  0  0  0  0  0  0  0  0  0  0
   24.3960   -4.8449   44.5356 C   0  0  0  0  0  0  0  0  0  0  0  0
   25.7205   -5.0195   43.8463 C   0  0  0  0  0  0  0  0  0  0  0  0
   26.0290   -6.5166   43.7600 C   0  0  0  0  0  0  0  0  0  0  0  0
  1  2  1  0  0  0
  2 27  1  0  0  0
 27 28  2  0  0  0
 27 29  1  0  0  0
 29 31  1  0  0  0
 31 32  1  0  0  0
 32 33  1  0  0  0
 33 34  1  0  0  0
 34 35  1  0  0  0
 35 36  1  0  0  0
 36 37  1  0  0  0
 37 39  1  0  0  0
 39 40  2  0  0  0
 40 41  1  0  0  0
 41 42  2  0  0  0
 42 43  1  0  0  0
 43 44  2  0  0  0
 44 45  1  0  0  0
 45 46  2  0  0  0
 46 47  1  0  0  0
 47 48  2  0  0  0
 41 49  1  0  0  0
 49 50  1  0  0  0
 50 51  1  0  0  0
 51 52  1  0  0  0
  2  3  1  0  0  0
  3  4  2  0  0  0
  4  5  1  0  0  0
  5  6  2  0  0  0
  6 10  1  0  0  0
 10 11  2  0  0  0
 11 12  1  0  0  0
 12 13  2  0  0  0
 13 16  1  0  0  0
 16 17  1  0  0  0
 17 18  1  0  0  0
 18 19  1  0  0  0
 19 20  1  0  0  0
 20 21  1  0  0  0
 21 22  1  0  0  0
 22 23  1  0  0  0
 23 24  1  0  0  0
 24 25  2  0  0  0
 24 26  1  0  0  0
 13 14  1  0  0  0
 14 15  2  0  0  0
  6  7  1  0  0  0
  7  8  1  0  0  0
  7  9  2  0  0  0
 48 39  1  0  0  0
  9  3  1  0  0  0
 52 40  1  0  0  0
 15 10  1  0  0  0
 48 43  1  0  0  0
 29 30  1  0  0  0
 37 38  1  0  0  0
M  CHG 1  24   1
M  CHG 1  26  -1
M  END
> <minimizedAffinity>
-8.65291

> <CNNscore>
0.4350980222

> <CNNaffinity>
6.6745591164

> <CNN_VS>
2.9040875435

> <CNNaffinity_variance>
0.2933190465

$$$$
[H]c1c([H])c(-c2c([H])c([H])c(C([H])(C(=O)N([H])C([H])([H])C([H])([H])C([H])([H])C([H])([H])C([H])([H])C([H])([H])N([H])c3c4c(nc5c([H])c([H])c([H])c([H])c35)C([H])([H])C([H])([H])C([H])([H])C4([H])[H])C([H])([H])[H])c([H])c2F)c([H])c([H])c1OC([H])([H])C([H])([H])C([H])([H])C([H])([H])C([H])([H])C([H])([H])O[N+](=O)[O-]


 52 56  0  0  0  0  0  0  0  0999 V2000
   33.9918  -10.9082   37.2155 C   0  0  0  0  0  0  0  0  0  0  0  0
   33.4359  -12.1538   37.8990 C   0  0  0  0  0  0  0  0  0  0  0  0
   34.2118  -13.3068   37.4027 C   0  0  0  0  0  0  0  0  0  0  0  0
   33.5666  -14.3042   36.7103 C   0  0  0  0  0  0  0  0  0  0  0  0
   34.2504  -15.4242   36.2347 C   0  0  0  0  0  0  0  0  0  0  0  0
   35.5866  -15.5307   36.4620 C   0  0  0  0  0  0  0  0  0  0  0  0
   36.2505  -14.5458   37.1515 C   0  0  0  0  0  0  0  0  0  0  0  0
   37.5800  -14.6393   37.3919 F   0  0  0  0  0  0  0  0  0  0  0  0
   35.5562  -13.4244   37.6257 C   0  0  0  0  0  0  0  0  0  0  0  0
   36.3243  -16.6813   35.9743 C   0  0  0  0  0  0  0  0  0  0  0  0
   36.9628  -17.5537   36.8269 C   0  0  0  0  0  0  0  0  0  0  0  0
   37.6617  -18.6587   36.3305 C   0  0  0  0  0  0  0  0  0  0  0  0
   37.7531  -18.9357   34.9879 C   0  0  0  0  0  0  0  0  0  0  0  0
   37.0934  -18.0335   34.1284 C   0  0  0  0  0  0  0  0  0  0  0  0
   36.4147  -16.9590   34.6292 C   0  0  0  0  0  0  0  0  0  0  0  0
   38.4205  -19.9912   34.4205 O   0  0  0  0  0  0  0  0  0  0  0  0
   39.7960  -20.2044   34.3966 C   0  0  0  0  0  0  0  0  0  0  0  0
   40.1197  -21.5805   34.8835 C   0  0  0  0  0  0  0  0  0  0  0  0
   38.9884  -22.5225   34.5937 C   0  0  0  0  0  0  0  0  0  0  0  0
   39.4580  -23.9361   34.6301 C   0  0  0  0  0  0  0  0  0  0  0  0
   40.9054  -24.0738   35.0278 C   0  0  0  0  0  0  0  0  0  0  0  0
   41.0295  -25.0664   36.1471 C   0  0  0  0  0  0  0  0  0  0  0  0
   41.5820  -26.2810   35.6096 O   0  0  0  0  0  0  0  0  0  0  0  0
   41.0715  -27.4523   36.1148 N   0  0  0  0  0  0  0  0  0  0  0  0
   41.7978  -28.3608   36.5591 O   0  0  0  0  0  0  0  0  0  0  0  0
   39.6940  -27.5687   36.1028 O   0  0  0  0  0  0  0  0  0  0  0  0
   31.9843  -12.2675   37.7740 C   0  0  0  0  0  0  0  0  0  0  0  0
   31.4311  -12.2117   36.6194 O   0  0  0  0  0  0  0  0  0  0  0  0
   31.0948  -12.4427   38.8586 N   0  0  0  0  0  0  0  0  0  0  0  0
   31.4984  -12.4947   39.8164 H   0  0  0  0  0  0  0  0  0  0  0  0
   29.6686  -12.5573   38.7188 C   0  0  0  0  0  0  0  0  0  0  0  0
   28.9669  -11.2273   38.8524 C   0  0  0  0  0  0  0  0  0  0  0  0
   28.6150  -10.9756   40.3052 C   0  0  0  0  0  0  0  0  0  0  0  0
   27.0892  -11.0278   40.4040 C   0  0  0  0  0  0  0  0  0  0  0  0
   26.6524  -11.5688   41.7115 C   0  0  0  0  0  0  0  0  0  0  0  0
   26.4613  -10.5834   42.7849 C   0  0  0  0  0  0  0  0  0  0  0  0
   25.1643  -10.1470   43.0840 N   0  0  0  0  0  0  0  0  0  0  0  0
   24.6476  -10.7161   43.8549 H   0  0  0  0  0  0  0  0  0  0  0  0
   24.3805   -9.1065   42.5816 C   0  0  0  0  0  0  0  0  0  0  0  0
   24.5777   -7.8198   43.0420 C   0  0  0  0  0  0  0  0  0  0  0  0
   23.8376   -6.7891   42.5117 C   0  0  0  0  0  0  0  0  0  0  0  0
   22.9212   -7.0564   41.5379 N   0  0  0  0  0  0  0  0  0  0  0  0
   22.6999   -8.2910   41.0629 C   0  0  0  0  0  0  0  0  0  0  0  0
   21.7728   -8.5341   40.0780 C   0  0  0  0  0  0  0  0  0  0  0  0
   21.5611   -9.7966   39.6011 C   0  0  0  0  0  0  0  0  0  0  0  0
   22.3039  -10.8297   40.1338 C   0  0  0  0  0  0  0  0  0  0  0  0
   23.2302  -10.6137   41.1125 C   0  0  0  0  0  0  0  0  0  0  0  0
   23.4379   -9.3298   41.5901 C   0  0  0  0  0  0  0  0  0  0  0  0
   24.0364   -5.4232   43.0076 C   0  0  0  0  0  0  0  0  0  0  0  0
   25.4012   -5.1095   43.5136 C   0  0  0  0  0  0  0  0  0  0  0  0
   26.3431   -6.2801   43.5629 C   0  0  0  0  0  0  0  0  0  0  0  0
   25.5775   -7.4971   44.0888 C   0  0  0  0  0  0  0  0  0  0  0  0
  1  2  1  0  0  0
  2 27  1  0  0  0
 27 28  2  0  0  0
 27 29  1  0  0  0
 29 31  1  0  0  0
 31 32  1  0  0  0
 32 33  1  0  0  0
 33 34  1  0  0  0
 34 35  1  0  0  0
 35 36  1  0  0  0
 36 37  1  0  0  0
 37 39  1  0  0  0
 39 40  2  0  0  0
 40 41  1  0  0  0
 41 42  2  0  0  0
 42 43  1  0  0  0
 43 44  2  0  0  0
 44 45  1  0  0  0
 45 46  2  0  0  0
 46 47  1  0  0  0
 47 48  2  0  0  0
 41 49  1  0  0  0
 49 50  1  0  0  0
 50 51  1  0  0  0
 51 52  1  0  0  0
  2  3  1  0  0  0
  3  4  2  0  0  0
  4  5  1  0  0  0
  5  6  2  0  0  0
  6 10  1  0  0  0
 10 11  2  0  0  0
 11 12  1  0  0  0
 12 13  2  0  0  0
 13 16  1  0  0  0
 16 17  1  0  0  0
 17 18  1  0  0  0
 18 19  1  0  0  0
 19 20  1  0  0  0
 20 21  1  0  0  0
 21 22  1  0  0  0
 22 23  1  0  0  0
 23 24  1  0  0  0
 24 25  2  0  0  0
 24 26  1  0  0  0
 13 14  1  0  0  0
 14 15  2  0  0  0
  6  7  1  0  0  0
  7  8  1  0  0  0
  7  9  2  0  0  0
 48 39  1  0  0  0
  9  3  1  0  0  0
 52 40  1  0  0  0
 15 10  1  0  0  0
 48 43  1  0  0  0
 29 30  1  0  0  0
 37 38  1  0  0  0
M  CHG 1  24   1
M  CHG 1  26  -1
M  END
> <minimizedAffinity>
-7.44189

> <CNNscore>
0.3631214201

> <CNNaffinity>
6.4176177979

> <CNN_VS>
2.3303744793

> <CNNaffinity_variance>
0.3901670575

$$$$
[H]c1c([H])c(-c2c([H])c([H])c(C([H])(C(=O)N([H])C([H])([H])C([H])([H])C([H])([H])C([H])([H])C([H])([H])C([H])([H])N([H])c3c4c(nc5c([H])c([H])c([H])c([H])c35)C([H])([H])C([H])([H])C([H])([H])C4([H])[H])C([H])([H])[H])c([H])c2F)c([H])c([H])c1OC([H])([H])C([H])([H])C([H])([H])C([H])([H])C([H])([H])C([H])([H])O[N+](=O)[O-]


 52 56  0  0  0  0  0  0  0  0999 V2000
   34.6839  -11.3193   36.4263 C   0  0  0  0  0  0  0  0  0  0  0  0
   34.4411  -12.3276   37.5453 C   0  0  0  0  0  0  0  0  0  0  0  0
   35.0120  -13.6150   37.1041 C   0  0  0  0  0  0  0  0  0  0  0  0
   36.3504  -13.8606   37.3015 C   0  0  0  0  0  0  0  0  0  0  0  0
   36.9435  -15.0542   36.8873 C   0  0  0  0  0  0  0  0  0  0  0  0
   36.1787  -15.9963   36.2741 C   0  0  0  0  0  0  0  0  0  0  0  0
   34.8397  -15.7712   36.0671 C   0  0  0  0  0  0  0  0  0  0  0  0
   34.0651  -16.6964   35.4523 F   0  0  0  0  0  0  0  0  0  0  0  0
   34.2522  -14.5697   36.4861 C   0  0  0  0  0  0  0  0  0  0  0  0
   36.7673  -17.2490   35.8381 C   0  0  0  0  0  0  0  0  0  0  0  0
   36.7706  -17.6324   34.5157 C   0  0  0  0  0  0  0  0  0  0  0  0
   37.3506  -18.8426   34.1217 C   0  0  0  0  0  0  0  0  0  0  0  0
   37.9402  -19.7065   35.0125 C   0  0  0  0  0  0  0  0  0  0  0  0
   37.9291  -19.2990   36.3621 C   0  0  0  0  0  0  0  0  0  0  0  0
   37.3588  -18.1137   36.7307 C   0  0  0  0  0  0  0  0  0  0  0  0
   38.5245  -20.9101   34.7102 O   0  0  0  0  0  0  0  0  0  0  0  0
   39.8780  -21.2298   34.7734 C   0  0  0  0  0  0  0  0  0  0  0  0
   40.6384  -20.4928   33.7178 C   0  0  0  0  0  0  0  0  0  0  0  0
   41.4224  -19.3655   34.3223 C   0  0  0  0  0  0  0  0  0  0  0  0
   41.6865  -19.6226   35.7660 C   0  0  0  0  0  0  0  0  0  0  0  0
   41.7085  -18.3680   36.6011 C   0  0  0  0  0  0  0  0  0  0  0  0
   43.0993  -18.1248   37.1109 C   0  0  0  0  0  0  0  0  0  0  0  0
   43.3032  -16.7032   37.1956 O   0  0  0  0  0  0  0  0  0  0  0  0
   44.2053  -16.1684   36.3080 N   0  0  0  0  0  0  0  0  0  0  0  0
   44.7480  -15.0630   36.4918 O   0  0  0  0  0  0  0  0  0  0  0  0
   44.4802  -16.9314   35.1885 O   0  0  0  0  0  0  0  0  0  0  0  0
   33.0453  -12.3694   37.9761 C   0  0  0  0  0  0  0  0  0  0  0  0
   32.7411  -12.8376   39.1296 O   0  0  0  0  0  0  0  0  0  0  0  0
   31.9510  -11.9192   37.2027 N   0  0  0  0  0  0  0  0  0  0  0  0
   32.1491  -11.5297   36.2584 H   0  0  0  0  0  0  0  0  0  0  0  0
   30.5830  -11.9631   37.6427 C   0  0  0  0  0  0  0  0  0  0  0  0
   29.9423  -10.5964   37.6729 C   0  0  0  0  0  0  0  0  0  0  0  0
   28.6141  -10.6676   38.3998 C   0  0  0  0  0  0  0  0  0  0  0  0
   28.5090   -9.3999   39.2499 C   0  0  0  0  0  0  0  0  0  0  0  0
   28.3424   -9.7259   40.6848 C   0  0  0  0  0  0  0  0  0  0  0  0
   27.7635  -11.0433   40.9830 C   0  0  0  0  0  0  0  0  0  0  0  0
   26.3892  -11.1405   41.2361 N   0  0  0  0  0  0  0  0  0  0  0  0
   26.0334  -12.1351   41.4994 H   0  0  0  0  0  0  0  0  0  0  0  0
   25.3585  -10.1990   41.2177 C   0  0  0  0  0  0  0  0  0  0  0  0
   25.1095   -9.4375   42.3423 C   0  0  0  0  0  0  0  0  0  0  0  0
   24.1252   -8.4778   42.3069 C   0  0  0  0  0  0  0  0  0  0  0  0
   23.4119   -8.2939   41.1594 N   0  0  0  0  0  0  0  0  0  0  0  0
   23.6229   -9.0113   40.0459 C   0  0  0  0  0  0  0  0  0  0  0  0
   22.8928   -8.8043   38.9002 C   0  0  0  0  0  0  0  0  0  0  0  0
   23.1217   -9.5402   37.7722 C   0  0  0  0  0  0  0  0  0  0  0  0
   24.1090  -10.5027   37.8089 C   0  0  0  0  0  0  0  0  0  0  0  0
   24.8474  -10.7271   38.9345 C   0  0  0  0  0  0  0  0  0  0  0  0
   24.6080   -9.9759   40.0739 C   0  0  0  0  0  0  0  0  0  0  0  0
   23.8504   -7.6759   43.5039 C   0  0  0  0  0  0  0  0  0  0  0  0
   25.0080   -7.4503   44.4128 C   0  0  0  0  0  0  0  0  0  0  0  0
   26.2622   -8.1885   44.0364 C   0  0  0  0  0  0  0  0  0  0  0  0
   25.8790   -9.6047   43.5990 C   0  0  0  0  0  0  0  0  0  0  0  0
  1  2  1  0  0  0
  2 27  1  0  0  0
 27 28  2  0  0  0
 27 29  1  0  0  0
 29 31  1  0  0  0
 31 32  1  0  0  0
 32 33  1  0  0  0
 33 34  1  0  0  0
 34 35  1  0  0  0
 35 36  1  0  0  0
 36 37  1  0  0  0
 37 39  1  0  0  0
 39 40  2  0  0  0
 40 41  1  0  0  0
 41 42  2  0  0  0
 42 43  1  0  0  0
 43 44  2  0  0  0
 44 45  1  0  0  0
 45 46  2  0  0  0
 46 47  1  0  0  0
 47 48  2  0  0  0
 41 49  1  0  0  0
 49 50  1  0  0  0
 50 51  1  0  0  0
 51 52  1  0  0  0
  2  3  1  0  0  0
  3  4  2  0  0  0
  4  5  1  0  0  0
  5  6  2  0  0  0
  6 10  1  0  0  0
 10 11  2  0  0  0
 11 12  1  0  0  0
 12 13  2  0  0  0
 13 16  1  0  0  0
 16 17  1  0  0  0
 17 18  1  0  0  0
 18 19  1  0  0  0
 19 20  1  0  0  0
 20 21  1  0  0  0
 21 22  1  0  0  0
 22 23  1  0  0  0
 23 24  1  0  0  0
 24 25  2  0  0  0
 24 26  1  0  0  0
 13 14  1  0  0  0
 14 15  2  0  0  0
  6  7  1  0  0  0
  7  8  1  0  0  0
  7  9  2  0  0  0
 48 39  1  0  0  0
  9  3  1  0  0  0
 52 40  1  0  0  0
 15 10  1  0  0  0
 48 43  1  0  0  0
 29 30  1  0  0  0
 37 38  1  0  0  0
M  CHG 1  24   1
M  CHG 1  26  -1
M  END
> <minimizedAffinity>
-8.65786

> <CNNscore>
0.3549312949

> <CNNaffinity>
6.9115967751

> <CNN_VS>
2.4531419277

> <CNNaffinity_variance>
0.0695889965

$$$$
[H]c1c([H])c(-c2c([H])c([H])c(C([H])(C(=O)N([H])C([H])([H])C([H])([H])C([H])([H])C([H])([H])C([H])([H])C([H])([H])N([H])c3c4c(nc5c([H])c([H])c([H])c([H])c35)C([H])([H])C([H])([H])C([H])([H])C4([H])[H])C([H])([H])[H])c([H])c2F)c([H])c([H])c1OC([H])([H])C([H])([H])C([H])([H])C([H])([H])C([H])([H])C([H])([H])O[N+](=O)[O-]


 52 56  0  0  0  0  0  0  0  0999 V2000
   34.6470   -8.6149   36.1154 C   0  0  0  0  0  0  0  0  0  0  0  0
   33.9010   -9.3673   37.2131 C   0  0  0  0  0  0  0  0  0  0  0  0
   34.2713  -10.7910   37.0952 C   0  0  0  0  0  0  0  0  0  0  0  0
   35.3266  -11.1474   36.2890 C   0  0  0  0  0  0  0  0  0  0  0  0
   35.7066  -12.4808   36.1291 C   0  0  0  0  0  0  0  0  0  0  0  0
   35.0162  -13.4501   36.7867 C   0  0  0  0  0  0  0  0  0  0  0  0
   33.9588  -13.1158   37.5969 C   0  0  0  0  0  0  0  0  0  0  0  0
   33.2567  -14.0694   38.2541 F   0  0  0  0  0  0  0  0  0  0  0  0
   33.5838  -11.7744   37.7519 C   0  0  0  0  0  0  0  0  0  0  0  0
   35.3926  -14.8443   36.6437 C   0  0  0  0  0  0  0  0  0  0  0  0
   34.6642  -15.7212   35.8716 C   0  0  0  0  0  0  0  0  0  0  0  0
   35.0529  -17.0588   35.7458 C   0  0  0  0  0  0  0  0  0  0  0  0
   36.1631  -17.5700   36.3733 C   0  0  0  0  0  0  0  0  0  0  0  0
   36.8983  -16.6592   37.1592 C   0  0  0  0  0  0  0  0  0  0  0  0
   36.5055  -15.3557   37.2715 C   0  0  0  0  0  0  0  0  0  0  0  0
   36.6087  -18.8655   36.3064 O   0  0  0  0  0  0  0  0  0  0  0  0
   37.2792  -19.4731   35.2485 C   0  0  0  0  0  0  0  0  0  0  0  0
   38.7461  -19.5411   35.5301 C   0  0  0  0  0  0  0  0  0  0  0  0
   39.5349  -19.1240   34.3239 C   0  0  0  0  0  0  0  0  0  0  0  0
   40.9890  -19.0596   34.6423 C   0  0  0  0  0  0  0  0  0  0  0  0
   41.2828  -19.1764   36.1161 C   0  0  0  0  0  0  0  0  0  0  0  0
   42.0007  -17.9451   36.5872 C   0  0  0  0  0  0  0  0  0  0  0  0
   42.9344  -17.5524   35.5656 O   0  0  0  0  0  0  0  0  0  0  0  0
   44.0331  -16.8456   35.9908 N   0  0  0  0  0  0  0  0  0  0  0  0
   44.1056  -15.6059   35.9011 O   0  0  0  0  0  0  0  0  0  0  0  0
   45.0643  -17.5929   36.5287 O   0  0  0  0  0  0  0  0  0  0  0  0
   32.4671   -9.0853   37.2182 C   0  0  0  0  0  0  0  0  0  0  0  0
   31.9972   -8.1249   36.5117 O   0  0  0  0  0  0  0  0  0  0  0  0
   31.5078   -9.8082   37.9635 N   0  0  0  0  0  0  0  0  0  0  0  0
   31.8424  -10.5983   38.5522 H   0  0  0  0  0  0  0  0  0  0  0  0
   30.0992   -9.5209   37.9546 C   0  0  0  0  0  0  0  0  0  0  0  0
   29.2668  -10.7252   37.5857 C   0  0  0  0  0  0  0  0  0  0  0  0
   28.1026  -10.8591   38.5471 C   0  0  0  0  0  0  0  0  0  0  0  0
   28.2581   -9.7457   39.5847 C   0  0  0  0  0  0  0  0  0  0  0  0
   28.1420  -10.2741   40.9633 C   0  0  0  0  0  0  0  0  0  0  0  0
   27.4053   -9.4319   41.9159 C   0  0  0  0  0  0  0  0  0  0  0  0
   26.6225   -8.3779   41.4274 N   0  0  0  0  0  0  0  0  0  0  0  0
   27.1542   -7.6433   40.8252 H   0  0  0  0  0  0  0  0  0  0  0  0
   25.2671   -8.0703   41.5601 C   0  0  0  0  0  0  0  0  0  0  0  0
   24.8554   -7.2220   42.5687 C   0  0  0  0  0  0  0  0  0  0  0  0
   23.5264   -6.8825   42.6687 C   0  0  0  0  0  0  0  0  0  0  0  0
   22.6374   -7.3896   41.7677 N   0  0  0  0  0  0  0  0  0  0  0  0
   22.9964   -8.2153   40.7736 C   0  0  0  0  0  0  0  0  0  0  0  0
   22.0815   -8.7103   39.8754 C   0  0  0  0  0  0  0  0  0  0  0  0
   22.4626   -9.5475   38.8654 C   0  0  0  0  0  0  0  0  0  0  0  0
   23.7957   -9.8875   38.7661 C   0  0  0  0  0  0  0  0  0  0  0  0
   24.7231   -9.4091   39.6457 C   0  0  0  0  0  0  0  0  0  0  0  0
   24.3272   -8.5607   40.6671 C   0  0  0  0  0  0  0  0  0  0  0  0
   23.0844   -5.9914   43.7466 C   0  0  0  0  0  0  0  0  0  0  0  0
   24.0913   -5.0045   44.2257 C   0  0  0  0  0  0  0  0  0  0  0  0
   25.4602   -5.1526   43.6224 C   0  0  0  0  0  0  0  0  0  0  0  0
   25.8015   -6.6434   43.5533 C   0  0  0  0  0  0  0  0  0  0  0  0
  1  2  1  0  0  0
  2 27  1  0  0  0
 27 28  2  0  0  0
 27 29  1  0  0  0
 29 31  1  0  0  0
 31 32  1  0  0  0
 32 33  1  0  0  0
 33 34  1  0  0  0
 34 35  1  0  0  0
 35 36  1  0  0  0
 36 37  1  0  0  0
 37 39  1  0  0  0
 39 40  2  0  0  0
 40 41  1  0  0  0
 41 42  2  0  0  0
 42 43  1  0  0  0
 43 44  2  0  0  0
 44 45  1  0  0  0
 45 46  2  0  0  0
 46 47  1  0  0  0
 47 48  2  0  0  0
 41 49  1  0  0  0
 49 50  1  0  0  0
 50 51  1  0  0  0
 51 52  1  0  0  0
  2  3  1  0  0  0
  3  4  2  0  0  0
  4  5  1  0  0  0
  5  6  2  0  0  0
  6 10  1  0  0  0
 10 11  2  0  0  0
 11 12  1  0  0  0
 12 13  2  0  0  0
 13 16  1  0  0  0
 16 17  1  0  0  0
 17 18  1  0  0  0
 18 19  1  0  0  0
 19 20  1  0  0  0
 20 21  1  0  0  0
 21 22  1  0  0  0
 22 23  1  0  0  0
 23 24  1  0  0  0
 24 25  2  0  0  0
 24 26  1  0  0  0
 13 14  1  0  0  0
 14 15  2  0  0  0
  6  7  1  0  0  0
  7  8  1  0  0  0
  7  9  2  0  0  0
 48 39  1  0  0  0
  9  3  1  0  0  0
 52 40  1  0  0  0
 15 10  1  0  0  0
 48 43  1  0  0  0
 29 30  1  0  0  0
 37 38  1  0  0  0
M  CHG 1  24   1
M  CHG 1  26  -1
M  END
> <minimizedAffinity>
-8.87050

> <CNNscore>
0.3454959095

> <CNNaffinity>
6.9428548813

> <CNN_VS>
2.3987278938

> <CNNaffinity_variance>
0.3166775107

$$$$
[H]c1c([H])c(-c2c([H])c([H])c(C([H])(C(=O)N([H])C([H])([H])C([H])([H])C([H])([H])C([H])([H])C([H])([H])C([H])([H])N([H])c3c4c(nc5c([H])c([H])c([H])c([H])c35)C([H])([H])C([H])([H])C([H])([H])C4([H])[H])C([H])([H])[H])c([H])c2F)c([H])c([H])c1OC([H])([H])C([H])([H])C([H])([H])C([H])([H])C([H])([H])C([H])([H])O[N+](=O)[O-]


 52 56  0  0  0  0  0  0  0  0999 V2000
   44.4408  -18.0840   36.4443 C   0  0  0  0  0  0  0  0  0  0  0  0
   42.9170  -18.0230   36.4893 C   0  0  0  0  0  0  0  0  0  0  0  0
   42.4934  -18.6324   37.7648 C   0  0  0  0  0  0  0  0  0  0  0  0
   43.2335  -18.4002   38.9001 C   0  0  0  0  0  0  0  0  0  0  0  0
   42.8864  -18.9665   40.1277 C   0  0  0  0  0  0  0  0  0  0  0  0
   41.7898  -19.7669   40.2017 C   0  0  0  0  0  0  0  0  0  0  0  0
   41.0366  -20.0119   39.0797 C   0  0  0  0  0  0  0  0  0  0  0  0
   39.9451  -20.8117   39.1349 F   0  0  0  0  0  0  0  0  0  0  0  0
   41.3923  -19.4393   37.8510 C   0  0  0  0  0  0  0  0  0  0  0  0
   41.4019  -20.3646   41.4659 C   0  0  0  0  0  0  0  0  0  0  0  0
   40.5648  -19.7221   42.3504 C   0  0  0  0  0  0  0  0  0  0  0  0
   40.2016  -20.3238   43.5595 C   0  0  0  0  0  0  0  0  0  0  0  0
   40.6496  -21.5680   43.9321 C   0  0  0  0  0  0  0  0  0  0  0  0
   41.5050  -22.2127   43.0154 C   0  0  0  0  0  0  0  0  0  0  0  0
   41.8500  -21.6115   41.8383 C   0  0  0  0  0  0  0  0  0  0  0  0
   40.3463  -22.2243   45.0978 O   0  0  0  0  0  0  0  0  0  0  0  0
   39.0832  -22.5871   45.5571 C   0  0  0  0  0  0  0  0  0  0  0  0
   38.3931  -23.4566   44.5554 C   0  0  0  0  0  0  0  0  0  0  0  0
   37.3073  -22.6946   43.8544 C   0  0  0  0  0  0  0  0  0  0  0  0
   36.7803  -23.4727   42.6981 C   0  0  0  0  0  0  0  0  0  0  0  0
   37.0428  -22.8153   41.3674 C   0  0  0  0  0  0  0  0  0  0  0  0
   35.7425  -22.5785   40.6557 C   0  0  0  0  0  0  0  0  0  0  0  0
   35.4626  -21.1679   40.6914 O   0  0  0  0  0  0  0  0  0  0  0  0
   34.1417  -20.8107   40.5680 N   0  0  0  0  0  0  0  0  0  0  0  0
   33.5268  -20.2050   41.4653 O   0  0  0  0  0  0  0  0  0  0  0  0
   33.5260  -21.1641   39.3817 O   0  0  0  0  0  0  0  0  0  0  0  0
   42.2931  -18.5732   35.2877 C   0  0  0  0  0  0  0  0  0  0  0  0
   42.7001  -19.6878   34.8035 O   0  0  0  0  0  0  0  0  0  0  0  0
   41.2333  -17.9617   34.5797 N   0  0  0  0  0  0  0  0  0  0  0  0
   40.8686  -17.0546   34.9361 H   0  0  0  0  0  0  0  0  0  0  0  0
   40.6270  -18.5181   33.4010 C   0  0  0  0  0  0  0  0  0  0  0  0
   39.1229  -18.5954   33.5072 C   0  0  0  0  0  0  0  0  0  0  0  0
   38.7224  -19.8824   34.2007 C   0  0  0  0  0  0  0  0  0  0  0  0
   38.2974  -19.5034   35.6207 C   0  0  0  0  0  0  0  0  0  0  0  0
   37.5170  -20.5891   36.2573 C   0  0  0  0  0  0  0  0  0  0  0  0
   36.9189  -20.2728   37.5618 C   0  0  0  0  0  0  0  0  0  0  0  0
   35.6101  -19.7756   37.6070 N   0  0  0  0  0  0  0  0  0  0  0  0
   35.0216  -20.0909   38.4669 H   0  0  0  0  0  0  0  0  0  0  0  0
   34.8896  -18.9390   36.7525 C   0  0  0  0  0  0  0  0  0  0  0  0
   35.1786  -17.5894   36.7151 C   0  0  0  0  0  0  0  0  0  0  0  0
   34.5005  -16.7748   35.8387 C   0  0  0  0  0  0  0  0  0  0  0  0
   33.5539  -17.3157   35.0197 N   0  0  0  0  0  0  0  0  0  0  0  0
   33.2441  -18.6207   35.0242 C   0  0  0  0  0  0  0  0  0  0  0  0
   32.2882  -19.1424   34.1859 C   0  0  0  0  0  0  0  0  0  0  0  0
   31.9861  -20.4746   34.1990 C   0  0  0  0  0  0  0  0  0  0  0  0
   32.6667  -21.2906   35.0787 C   0  0  0  0  0  0  0  0  0  0  0  0
   33.6199  -20.7963   35.9210 C   0  0  0  0  0  0  0  0  0  0  0  0
   33.9195  -19.4437   35.9007 C   0  0  0  0  0  0  0  0  0  0  0  0
   34.7969  -15.3387   35.8055 C   0  0  0  0  0  0  0  0  0  0  0  0
   36.1870  -14.9550   36.1764 C   0  0  0  0  0  0  0  0  0  0  0  0
   37.0498  -16.0880   36.6579 C   0  0  0  0  0  0  0  0  0  0  0  0
   36.2132  -16.9760   37.5828 C   0  0  0  0  0  0  0  0  0  0  0  0
  1  2  1  0  0  0
  2 27  1  0  0  0
 27 28  2  0  0  0
 27 29  1  0  0  0
 29 31  1  0  0  0
 31 32  1  0  0  0
 32 33  1  0  0  0
 33 34  1  0  0  0
 34 35  1  0  0  0
 35 36  1  0  0  0
 36 37  1  0  0  0
 37 39  1  0  0  0
 39 40  2  0  0  0
 40 41  1  0  0  0
 41 42  2  0  0  0
 42 43  1  0  0  0
 43 44  2  0  0  0
 44 45  1  0  0  0
 45 46  2  0  0  0
 46 47  1  0  0  0
 47 48  2  0  0  0
 41 49  1  0  0  0
 49 50  1  0  0  0
 50 51  1  0  0  0
 51 52  1  0  0  0
  2  3  1  0  0  0
  3  4  2  0  0  0
  4  5  1  0  0  0
  5  6  2  0  0  0
  6 10  1  0  0  0
 10 11  2  0  0  0
 11 12  1  0  0  0
 12 13  2  0  0  0
 13 16  1  0  0  0
 16 17  1  0  0  0
 17 18  1  0  0  0
 18 19  1  0  0  0
 19 20  1  0  0  0
 20 21  1  0  0  0
 21 22  1  0  0  0
 22 23  1  0  0  0
 23 24  1  0  0  0
 24 25  2  0  0  0
 24 26  1  0  0  0
 13 14  1  0  0  0
 14 15  2  0  0  0
  6  7  1  0  0  0
  7  8  1  0  0  0
  7  9  2  0  0  0
 48 39  1  0  0  0
  9  3  1  0  0  0
 52 40  1  0  0  0
 15 10  1  0  0  0
 48 43  1  0  0  0
 29 30  1  0  0  0
 37 38  1  0  0  0
M  CHG 1  24   1
M  CHG 1  26  -1
M  END
> <minimizedAffinity>
-5.98326

> <CNNscore>
0.3182840943

> <CNNaffinity>
7.0927963257

> <CNN_VS>
2.2575242519

> <CNNaffinity_variance>
0.5012502074

$$$$
[H]c1c([H])c(-c2c([H])c([H])c(C([H])(C(=O)N([H])C([H])([H])C([H])([H])C([H])([H])C([H])([H])C([H])([H])C([H])([H])N([H])c3c4c(nc5c([H])c([H])c([H])c([H])c35)C([H])([H])C([H])([H])C([H])([H])C4([H])[H])C([H])([H])[H])c([H])c2F)c([H])c([H])c1OC([H])([H])C([H])([H])C([H])([H])C([H])([H])C([H])([H])C([H])([H])O[N+](=O)[O-]


 52 56  0  0  0  0  0  0  0  0999 V2000
   34.0227  -10.9426   37.1367 C   0  0  0  0  0  0  0  0  0  0  0  0
   33.4240  -12.1857   37.7880 C   0  0  0  0  0  0  0  0  0  0  0  0
   34.2002  -13.3459   37.3092 C   0  0  0  0  0  0  0  0  0  0  0  0
   33.5550  -14.3545   36.6331 C   0  0  0  0  0  0  0  0  0  0  0  0
   34.2390  -15.4814   36.1746 C   0  0  0  0  0  0  0  0  0  0  0  0
   35.5756  -15.5835   36.4023 C   0  0  0  0  0  0  0  0  0  0  0  0
   36.2394  -14.5873   37.0757 C   0  0  0  0  0  0  0  0  0  0  0  0
   37.5692  -14.6763   37.3162 F   0  0  0  0  0  0  0  0  0  0  0  0
   35.5449  -13.4591   37.5327 C   0  0  0  0  0  0  0  0  0  0  0  0
   36.3136  -16.7411   35.9321 C   0  0  0  0  0  0  0  0  0  0  0  0
   36.9919  -17.5734   36.7940 C   0  0  0  0  0  0  0  0  0  0  0  0
   37.6901  -18.6864   36.3147 C   0  0  0  0  0  0  0  0  0  0  0  0
   37.7419  -19.0107   34.9806 C   0  0  0  0  0  0  0  0  0  0  0  0
   37.0417  -18.1491   34.1116 C   0  0  0  0  0  0  0  0  0  0  0  0
   36.3642  -17.0662   34.5957 C   0  0  0  0  0  0  0  0  0  0  0  0
   38.4057  -20.0771   34.4297 O   0  0  0  0  0  0  0  0  0  0  0  0
   39.7830  -20.2630   34.3496 C   0  0  0  0  0  0  0  0  0  0  0  0
   40.1757  -21.5473   35.0070 C   0  0  0  0  0  0  0  0  0  0  0  0
   39.0235  -22.5081   35.0185 C   0  0  0  0  0  0  0  0  0  0  0  0
   39.3022  -23.6750   34.1349 C   0  0  0  0  0  0  0  0  0  0  0  0
   40.6978  -23.6722   33.5655 C   0  0  0  0  0  0  0  0  0  0  0  0
   41.3458  -25.0041   33.8098 C   0  0  0  0  0  0  0  0  0  0  0  0
   41.4001  -25.7120   32.5586 O   0  0  0  0  0  0  0  0  0  0  0  0
   41.1899  -27.0683   32.6223 N   0  0  0  0  0  0  0  0  0  0  0  0
   41.9720  -27.8903   32.1095 O   0  0  0  0  0  0  0  0  0  0  0  0
   40.0515  -27.4749   33.2930 O   0  0  0  0  0  0  0  0  0  0  0  0
   31.9764  -12.2763   37.6097 C   0  0  0  0  0  0  0  0  0  0  0  0
   31.4805  -12.4350   36.4387 O   0  0  0  0  0  0  0  0  0  0  0  0
   31.0307  -12.2031   38.6579 N   0  0  0  0  0  0  0  0  0  0  0  0
   31.3866  -12.0752   39.6273 H   0  0  0  0  0  0  0  0  0  0  0  0
   29.6091  -12.2983   38.4666 C   0  0  0  0  0  0  0  0  0  0  0  0
   28.9975  -10.9912   38.0230 C   0  0  0  0  0  0  0  0  0  0  0  0
   28.8230  -10.0741   39.2173 C   0  0  0  0  0  0  0  0  0  0  0  0
   27.3321   -9.7420   39.3032 C   0  0  0  0  0  0  0  0  0  0  0  0
   26.5037  -10.9689   39.2628 C   0  0  0  0  0  0  0  0  0  0  0  0
   26.3820  -11.7057   40.5285 C   0  0  0  0  0  0  0  0  0  0  0  0
   25.3279  -11.3953   41.3972 N   0  0  0  0  0  0  0  0  0  0  0  0
   24.4575  -12.0451   41.3240 H   0  0  0  0  0  0  0  0  0  0  0  0
   25.1623  -10.3977   42.3597 C   0  0  0  0  0  0  0  0  0  0  0  0
   25.8557  -10.4769   43.5511 C   0  0  0  0  0  0  0  0  0  0  0  0
   25.7278   -9.4693   44.4783 C   0  0  0  0  0  0  0  0  0  0  0  0
   24.9180   -8.4071   44.2036 N   0  0  0  0  0  0  0  0  0  0  0  0
   24.2285   -8.2917   43.0590 C   0  0  0  0  0  0  0  0  0  0  0  0
   23.4215   -7.2090   42.8041 C   0  0  0  0  0  0  0  0  0  0  0  0
   22.7281   -7.1032   41.6318 C   0  0  0  0  0  0  0  0  0  0  0  0
   22.8569   -8.1145   40.7027 C   0  0  0  0  0  0  0  0  0  0  0  0
   23.6520   -9.1997   40.9326 C   0  0  0  0  0  0  0  0  0  0  0  0
   24.3513   -9.2985   42.1246 C   0  0  0  0  0  0  0  0  0  0  0  0
   26.4537   -9.5570   45.7498 C   0  0  0  0  0  0  0  0  0  0  0  0
   27.7396  -10.3067   45.7118 C   0  0  0  0  0  0  0  0  0  0  0  0
   28.0433  -10.9774   44.4011 C   0  0  0  0  0  0  0  0  0  0  0  0
   26.7550  -11.6120   43.8707 C   0  0  0  0  0  0  0  0  0  0  0  0
  1  2  1  0  0  0
  2 27  1  0  0  0
 27 28  2  0  0  0
 27 29  1  0  0  0
 29 31  1  0  0  0
 31 32  1  0  0  0
 32 33  1  0  0  0
 33 34  1  0  0  0
 34 35  1  0  0  0
 35 36  1  0  0  0
 36 37  1  0  0  0
 37 39  1  0  0  0
 39 40  2  0  0  0
 40 41  1  0  0  0
 41 42  2  0  0  0
 42 43  1  0  0  0
 43 44  2  0  0  0
 44 45  1  0  0  0
 45 46  2  0  0  0
 46 47  1  0  0  0
 47 48  2  0  0  0
 41 49  1  0  0  0
 49 50  1  0  0  0
 50 51  1  0  0  0
 51 52  1  0  0  0
  2  3  1  0  0  0
  3  4  2  0  0  0
  4  5  1  0  0  0
  5  6  2  0  0  0
  6 10  1  0  0  0
 10 11  2  0  0  0
 11 12  1  0  0  0
 12 13  2  0  0  0
 13 16  1  0  0  0
 16 17  1  0  0  0
 17 18  1  0  0  0
 18 19  1  0  0  0
 19 20  1  0  0  0
 20 21  1  0  0  0
 21 22  1  0  0  0
 22 23  1  0  0  0
 23 24  1  0  0  0
 24 25  2  0  0  0
 24 26  1  0  0  0
 13 14  1  0  0  0
 14 15  2  0  0  0
  6  7  1  0  0  0
  7  8  1  0  0  0
  7  9  2  0  0  0
 48 39  1  0  0  0
  9  3  1  0  0  0
 52 40  1  0  0  0
 15 10  1  0  0  0
 48 43  1  0  0  0
 29 30  1  0  0  0
 37 38  1  0  0  0
M  CHG 1  24   1
M  CHG 1  26  -1
M  END
> <minimizedAffinity>
-7.38602

> <CNNscore>
0.3157977164

> <CNNaffinity>
6.6874785423

> <CNN_VS>
2.1118905544

> <CNNaffinity_variance>
0.1516732275

$$$$
[H]OC(=O)[C@@]([H])(N([H])[H])C([H])([H])OP(=O)(O[H])O[C@]1([H])C([H])([H])C([H])([H])C([H])([H])O[C@]1([H])C([H])([H])OC(=O)C([H])([H])C([H])([H])c1c([H])c([H])c([H])c([H])c1OC([H])([H])c1c([H])c([H])c([H])c(Oc2c([H])c([H])c(C([H])([H])[H])c([H])c2[H])c1[H]


 49 52  0  0  0  0  0  0  0  0999 V2000
   32.3316  -12.5416   38.2138 C   0  0  0  0  0  0  0  0  0  0  0  0
   32.6561  -12.7712   39.3904 O   0  0  0  0  0  0  0  0  0  0  0  0
   30.9608  -12.3002   37.9581 O   0  0  0  0  0  0  0  0  0  0  0  0
   29.9490  -12.4563   38.8519 C   0  0  0  0  0  0  0  0  0  0  0  0
   28.9402  -11.3612   39.0238 C   0  0  0  0  0  0  0  0  0  0  0  0
   27.8241  -11.5094   38.2436 O   0  0  0  0  0  0  0  0  0  0  0  0
   26.6389  -11.0743   38.7819 C   0  0  0  0  0  0  0  0  0  0  0  0
   26.7262   -9.8632   39.6552 C   0  0  0  0  0  0  0  0  0  0  0  0
   27.8723   -9.8649   40.6034 C   0  0  0  0  0  0  0  0  0  0  0  0
   28.5827  -11.2037   40.5074 C   0  0  0  0  0  0  0  0  0  0  0  0
   27.8519  -12.2337   41.0198 O   0  0  0  0  0  0  0  0  0  0  0  0
   28.4185  -12.9017   42.4389 P   0  0  0  0  0  0  0  0  0  0  0  0
   29.8618  -12.6442   42.7198 O   0  0  0  0  0  0  0  0  0  0  0  0
   27.5533  -12.3092   43.7933 O   0  0  0  0  0  0  0  0  0  0  0  0
   26.7824  -12.8751   43.9522 H   0  0  0  0  0  0  0  0  0  0  0  0
   28.0905  -14.5737   42.3771 O   0  0  0  0  0  0  0  0  0  0  0  0
   27.0670  -14.8753   41.4825 C   0  0  0  0  0  0  0  0  0  0  0  0
   27.7496  -15.2808   40.1853 C   0  0  0  0  0  0  0  0  0  0  0  0
   27.1371  -14.5529   39.1101 N   0  0  0  0  0  0  0  0  0  0  0  0
   27.5050  -13.6057   38.9986 H   0  0  0  0  0  0  0  0  0  0  0  0
   26.9991  -15.0951   38.2474 H   0  0  0  0  0  0  0  0  0  0  0  0
   27.8003  -16.7308   39.9776 C   0  0  0  0  0  0  0  0  0  0  0  0
   28.2299  -17.5004   40.8641 O   0  0  0  0  0  0  0  0  0  0  0  0
   27.3698  -17.2780   38.7841 O   0  0  0  0  0  0  0  0  0  0  0  0
   26.4406  -17.3003   38.4364 H   0  0  0  0  0  0  0  0  0  0  0  0
   33.2667  -12.5139   37.0941 C   0  0  0  0  0  0  0  0  0  0  0  0
   33.4895  -13.7305   36.2951 C   0  0  0  0  0  0  0  0  0  0  0  0
   34.7318  -15.9338   36.2882 C   0  0  0  0  0  0  0  0  0  0  0  0
   35.8732  -16.6187   36.6052 C   0  0  0  0  0  0  0  0  0  0  0  0
   36.9237  -16.0446   37.3330 C   0  0  0  0  0  0  0  0  0  0  0  0
   36.7789  -14.7385   37.7340 C   0  0  0  0  0  0  0  0  0  0  0  0
   35.6484  -14.0299   37.4274 C   0  0  0  0  0  0  0  0  0  0  0  0
   34.6193  -14.6082   36.7064 C   0  0  0  0  0  0  0  0  0  0  0  0
   33.7259  -16.5151   35.5979 O   0  0  0  0  0  0  0  0  0  0  0  0
   33.6506  -17.6046   34.7742 C   0  0  0  0  0  0  0  0  0  0  0  0
   30.8337  -19.9381   35.7668 C   0  0  0  0  0  0  0  0  0  0  0  0
   31.5128  -20.9920   36.3837 C   0  0  0  0  0  0  0  0  0  0  0  0
   32.8803  -20.8814   36.4475 C   0  0  0  0  0  0  0  0  0  0  0  0
   33.5528  -19.7974   35.9349 C   0  0  0  0  0  0  0  0  0  0  0  0
   32.8560  -18.7649   35.3264 C   0  0  0  0  0  0  0  0  0  0  0  0
   31.4976  -18.8524   35.2517 C   0  0  0  0  0  0  0  0  0  0  0  0
   29.4551  -20.0602   35.7136 O   0  0  0  0  0  0  0  0  0  0  0  0
   26.4935  -24.3768   37.7226 C   0  0  0  0  0  0  0  0  0  0  0  0
   27.2736  -23.2369   37.2017 C   0  0  0  0  0  0  0  0  0  0  0  0
   27.3139  -22.0435   37.9102 C   0  0  0  0  0  0  0  0  0  0  0  0
   28.0576  -20.9884   37.3877 C   0  0  0  0  0  0  0  0  0  0  0  0
   28.7404  -21.1011   36.2046 C   0  0  0  0  0  0  0  0  0  0  0  0
   28.6836  -22.3109   35.5126 C   0  0  0  0  0  0  0  0  0  0  0  0
   27.9606  -23.3739   35.9978 C   0  0  0  0  0  0  0  0  0  0  0  0
 43 44  1  0  0  0
 44 45  2  0  0  0
 45 46  1  0  0  0
 46 47  2  0  0  0
 47 42  1  0  0  0
 42 36  1  0  0  0
 36 37  2  0  0  0
 37 38  1  0  0  0
 38 39  2  0  0  0
 39 40  1  0  0  0
 40 35  1  0  0  0
 35 34  1  0  0  0
 34 28  1  0  0  0
 28 29  2  0  0  0
 29 30  1  0  0  0
 30 31  2  0  0  0
 31 32  1  0  0  0
 32 33  2  0  0  0
 33 27  1  0  0  0
 27 26  1  0  0  0
 26  1  1  0  0  0
  1  2  2  0  0  0
  1  3  1  0  0  0
  3  4  1  0  0  0
  4  5  1  0  0  0
  5  6  1  0  0  0
  6  7  1  0  0  0
  7  8  1  0  0  0
  8  9  1  0  0  0
  9 10  1  0  0  0
 10 11  1  0  0  0
 11 12  1  0  0  0
 12 13  2  0  0  0
 12 14  1  0  0  0
 12 16  1  0  0  0
 16 17  1  0  0  0
 17 18  1  0  0  0
 18 19  1  0  0  0
 18 22  1  0  0  0
 22 23  2  0  0  0
 22 24  1  0  0  0
 40 41  2  0  0  0
 47 48  1  0  0  0
 48 49  2  0  0  0
 49 44  1  0  0  0
 41 36  1  0  0  0
 33 28  1  0  0  0
 10  5  1  0  0  0
 14 15  1  0  0  0
 19 20  1  0  0  0
 19 21  1  0  0  0
 24 25  1  0  0  0
M  END
> <minimizedAffinity>
-8.21357

> <CNNscore>
0.6369467378

> <CNNaffinity>
6.6012878418

> <CNN_VS>
4.2046685219

> <CNNaffinity_variance>
0.1761731803

$$$$
[H]OC(=O)[C@@]([H])(N([H])[H])C([H])([H])OP(=O)(O[H])O[C@]1([H])C([H])([H])C([H])([H])C([H])([H])O[C@]1([H])C([H])([H])OC(=O)C([H])([H])C([H])([H])c1c([H])c([H])c([H])c([H])c1OC([H])([H])c1c([H])c([H])c([H])c(Oc2c([H])c([H])c(C([H])([H])[H])c([H])c2[H])c1[H]


 49 52  0  0  0  0  0  0  0  0999 V2000
   30.1431  -11.3601   37.6508 C   0  0  0  0  0  0  0  0  0  0  0  0
   30.6719  -12.2668   38.3147 O   0  0  0  0  0  0  0  0  0  0  0  0
   28.7386  -11.4162   37.4862 O   0  0  0  0  0  0  0  0  0  0  0  0
   27.8460  -11.8162   38.4297 C   0  0  0  0  0  0  0  0  0  0  0  0
   26.4288  -11.3339   38.3568 C   0  0  0  0  0  0  0  0  0  0  0  0
   25.5013  -12.3417   38.3408 O   0  0  0  0  0  0  0  0  0  0  0  0
   24.3101  -12.0875   38.9735 C   0  0  0  0  0  0  0  0  0  0  0  0
   23.8144  -10.6791   38.8864 C   0  0  0  0  0  0  0  0  0  0  0  0
   24.8591   -9.6409   39.0947 C   0  0  0  0  0  0  0  0  0  0  0  0
   26.1577  -10.3266   39.4818 C   0  0  0  0  0  0  0  0  0  0  0  0
   26.1201  -10.8760   40.7286 O   0  0  0  0  0  0  0  0  0  0  0  0
   26.4600   -9.8464   41.9955 P   0  0  0  0  0  0  0  0  0  0  0  0
   25.6162  -10.0480   43.2103 O   0  0  0  0  0  0  0  0  0  0  0  0
   28.0861  -10.0087   42.5089 O   0  0  0  0  0  0  0  0  0  0  0  0
   28.6442   -9.4025   41.9980 H   0  0  0  0  0  0  0  0  0  0  0  0
   26.3196   -8.2534   41.4040 O   0  0  0  0  0  0  0  0  0  0  0  0
   25.4169   -7.4957   42.1454 C   0  0  0  0  0  0  0  0  0  0  0  0
   26.2145   -6.3337   42.7169 C   0  0  0  0  0  0  0  0  0  0  0  0
   27.2846   -6.0345   41.8079 N   0  0  0  0  0  0  0  0  0  0  0  0
   26.9994   -5.4432   41.0244 H   0  0  0  0  0  0  0  0  0  0  0  0
   28.1783   -5.7982   42.2583 H   0  0  0  0  0  0  0  0  0  0  0  0
   26.6435   -6.5422   44.1029 C   0  0  0  0  0  0  0  0  0  0  0  0
   26.5776   -5.6246   44.9493 O   0  0  0  0  0  0  0  0  0  0  0  0
   27.1345   -7.7705   44.5018 O   0  0  0  0  0  0  0  0  0  0  0  0
   26.6308   -8.6229   44.5710 H   0  0  0  0  0  0  0  0  0  0  0  0
   30.8757  -10.2599   37.0330 C   0  0  0  0  0  0  0  0  0  0  0  0
   31.9073   -9.5433   37.8013 C   0  0  0  0  0  0  0  0  0  0  0  0
   34.2034   -9.7594   36.7624 C   0  0  0  0  0  0  0  0  0  0  0  0
   35.1535   -9.2245   35.9356 C   0  0  0  0  0  0  0  0  0  0  0  0
   35.0281   -7.9532   35.3605 C   0  0  0  0  0  0  0  0  0  0  0  0
   33.8955   -7.2326   35.6532 C   0  0  0  0  0  0  0  0  0  0  0  0
   32.9284   -7.7459   36.4751 C   0  0  0  0  0  0  0  0  0  0  0  0
   33.0637   -9.0035   37.0349 C   0  0  0  0  0  0  0  0  0  0  0  0
   34.3549  -10.9823   37.3171 O   0  0  0  0  0  0  0  0  0  0  0  0
   34.0158  -12.2478   36.9234 C   0  0  0  0  0  0  0  0  0  0  0  0
   35.9408  -15.5053   37.1419 C   0  0  0  0  0  0  0  0  0  0  0  0
   37.2494  -15.0723   37.3705 C   0  0  0  0  0  0  0  0  0  0  0  0
   37.4375  -13.7139   37.4464 C   0  0  0  0  0  0  0  0  0  0  0  0
   36.4011  -12.8216   37.3057 C   0  0  0  0  0  0  0  0  0  0  0  0
   35.1114  -13.2764   37.0783 C   0  0  0  0  0  0  0  0  0  0  0  0
   34.9004  -14.6210   36.9997 C   0  0  0  0  0  0  0  0  0  0  0  0
   35.7648  -16.8774   37.0725 O   0  0  0  0  0  0  0  0  0  0  0  0
   38.7092  -20.3659   33.8167 C   0  0  0  0  0  0  0  0  0  0  0  0
   37.9389  -19.4498   34.6807 C   0  0  0  0  0  0  0  0  0  0  0  0
   37.9217  -19.6444   36.0554 C   0  0  0  0  0  0  0  0  0  0  0  0
   37.1823  -18.7624   36.8395 C   0  0  0  0  0  0  0  0  0  0  0  0
   36.4799  -17.7214   36.2904 C   0  0  0  0  0  0  0  0  0  0  0  0
   36.5139  -17.5479   34.9068 C   0  0  0  0  0  0  0  0  0  0  0  0
   37.2331  -18.3979   34.1015 C   0  0  0  0  0  0  0  0  0  0  0  0
 43 44  1  0  0  0
 44 45  2  0  0  0
 45 46  1  0  0  0
 46 47  2  0  0  0
 47 42  1  0  0  0
 42 36  1  0  0  0
 36 37  2  0  0  0
 37 38  1  0  0  0
 38 39  2  0  0  0
 39 40  1  0  0  0
 40 35  1  0  0  0
 35 34  1  0  0  0
 34 28  1  0  0  0
 28 29  2  0  0  0
 29 30  1  0  0  0
 30 31  2  0  0  0
 31 32  1  0  0  0
 32 33  2  0  0  0
 33 27  1  0  0  0
 27 26  1  0  0  0
 26  1  1  0  0  0
  1  2  2  0  0  0
  1  3  1  0  0  0
  3  4  1  0  0  0
  4  5  1  0  0  0
  5  6  1  0  0  0
  6  7  1  0  0  0
  7  8  1  0  0  0
  8  9  1  0  0  0
  9 10  1  0  0  0
 10 11  1  0  0  0
 11 12  1  0  0  0
 12 13  2  0  0  0
 12 14  1  0  0  0
 12 16  1  0  0  0
 16 17  1  0  0  0
 17 18  1  0  0  0
 18 19  1  0  0  0
 18 22  1  0  0  0
 22 23  2  0  0  0
 22 24  1  0  0  0
 40 41  2  0  0  0
 47 48  1  0  0  0
 48 49  2  0  0  0
 49 44  1  0  0  0
 41 36  1  0  0  0
 33 28  1  0  0  0
 10  5  1  0  0  0
 14 15  1  0  0  0
 19 20  1  0  0  0
 19 21  1  0  0  0
 24 25  1  0  0  0
M  END
> <minimizedAffinity>
-9.07134

> <CNNscore>
0.5286409855

> <CNNaffinity>
6.6063585281

> <CNN_VS>
3.4923918247

> <CNNaffinity_variance>
0.6158304214

$$$$
[H]OC(=O)[C@@]([H])(N([H])[H])C([H])([H])OP(=O)(O[H])O[C@]1([H])C([H])([H])C([H])([H])C([H])([H])O[C@]1([H])C([H])([H])OC(=O)C([H])([H])C([H])([H])c1c([H])c([H])c([H])c([H])c1OC([H])([H])c1c([H])c([H])c([H])c(Oc2c([H])c([H])c(C([H])([H])[H])c([H])c2[H])c1[H]


 49 52  0  0  0  0  0  0  0  0999 V2000
   32.1843  -12.8009   37.2966 C   0  0  0  0  0  0  0  0  0  0  0  0
   32.4732  -13.0021   38.4876 O   0  0  0  0  0  0  0  0  0  0  0  0
   30.9946  -12.0809   37.0341 O   0  0  0  0  0  0  0  0  0  0  0  0
   30.6390  -10.9022   37.6095 C   0  0  0  0  0  0  0  0  0  0  0  0
   29.2368  -10.7161   38.1054 C   0  0  0  0  0  0  0  0  0  0  0  0
   28.2854  -11.2877   37.3028 O   0  0  0  0  0  0  0  0  0  0  0  0
   27.1816  -11.8041   37.9342 C   0  0  0  0  0  0  0  0  0  0  0  0
   26.7192  -11.0620   39.1477 C   0  0  0  0  0  0  0  0  0  0  0  0
   27.8098  -10.6306   40.0627 C   0  0  0  0  0  0  0  0  0  0  0  0
   29.1240  -11.1994   39.5571 C   0  0  0  0  0  0  0  0  0  0  0  0
   29.2131  -12.5512   39.7060 O   0  0  0  0  0  0  0  0  0  0  0  0
   29.5935  -13.0983   41.2347 P   0  0  0  0  0  0  0  0  0  0  0  0
   31.0456  -13.0435   41.5762 O   0  0  0  0  0  0  0  0  0  0  0  0
   28.7830  -12.1896   42.4394 O   0  0  0  0  0  0  0  0  0  0  0  0
   27.9204  -12.5943   42.6182 H   0  0  0  0  0  0  0  0  0  0  0  0
   28.9876  -14.6864   41.3687 O   0  0  0  0  0  0  0  0  0  0  0  0
   28.4660  -14.9444   42.6336 C   0  0  0  0  0  0  0  0  0  0  0  0
   29.3435  -16.0309   43.2357 C   0  0  0  0  0  0  0  0  0  0  0  0
   30.5128  -15.4077   43.7882 N   0  0  0  0  0  0  0  0  0  0  0  0
   30.3644  -15.0206   44.7226 H   0  0  0  0  0  0  0  0  0  0  0  0
   31.3875  -15.9281   43.6417 H   0  0  0  0  0  0  0  0  0  0  0  0
   29.6289  -17.1329   42.3125 C   0  0  0  0  0  0  0  0  0  0  0  0
   30.6453  -17.8482   42.4477 O   0  0  0  0  0  0  0  0  0  0  0  0
   28.7699  -17.4027   41.2645 O   0  0  0  0  0  0  0  0  0  0  0  0
   27.8408  -17.7463   41.3251 H   0  0  0  0  0  0  0  0  0  0  0  0
   32.9846  -13.2635   36.1677 C   0  0  0  0  0  0  0  0  0  0  0  0
   33.7612  -14.5093   36.2815 C   0  0  0  0  0  0  0  0  0  0  0  0
   35.9557  -15.5021   37.0537 C   0  0  0  0  0  0  0  0  0  0  0  0
   37.2607  -15.2896   37.4061 C   0  0  0  0  0  0  0  0  0  0  0  0
   37.8116  -14.0078   37.5337 C   0  0  0  0  0  0  0  0  0  0  0  0
   36.9881  -12.9355   37.2896 C   0  0  0  0  0  0  0  0  0  0  0  0
   35.6795  -13.1207   36.9326 C   0  0  0  0  0  0  0  0  0  0  0  0
   35.1485  -14.3918   36.8082 C   0  0  0  0  0  0  0  0  0  0  0  0
   35.4438  -16.7487   36.9521 O   0  0  0  0  0  0  0  0  0  0  0  0
   35.9750  -18.0025   37.0831 C   0  0  0  0  0  0  0  0  0  0  0  0
   39.2340  -19.1842   35.5508 C   0  0  0  0  0  0  0  0  0  0  0  0
   39.0622  -18.8832   34.1973 C   0  0  0  0  0  0  0  0  0  0  0  0
   37.8703  -18.2957   33.8500 C   0  0  0  0  0  0  0  0  0  0  0  0
   36.8937  -18.0161   34.7764 C   0  0  0  0  0  0  0  0  0  0  0  0
   37.0878  -18.3256   36.1137 C   0  0  0  0  0  0  0  0  0  0  0  0
   38.2636  -18.9089   36.4822 C   0  0  0  0  0  0  0  0  0  0  0  0
   40.4422  -19.7718   35.8877 O   0  0  0  0  0  0  0  0  0  0  0  0
   43.3855  -18.6836   40.5344 C   0  0  0  0  0  0  0  0  0  0  0  0
   42.6170  -18.9667   39.3062 C   0  0  0  0  0  0  0  0  0  0  0  0
   42.8919  -18.2653   38.1398 C   0  0  0  0  0  0  0  0  0  0  0  0
   42.1455  -18.5566   37.0009 C   0  0  0  0  0  0  0  0  0  0  0  0
   41.1580  -19.5071   37.0070 C   0  0  0  0  0  0  0  0  0  0  0  0
   40.9019  -20.1975   38.1917 C   0  0  0  0  0  0  0  0  0  0  0  0
   41.6186  -19.9374   39.3349 C   0  0  0  0  0  0  0  0  0  0  0  0
 43 44  1  0  0  0
 44 45  2  0  0  0
 45 46  1  0  0  0
 46 47  2  0  0  0
 47 42  1  0  0  0
 42 36  1  0  0  0
 36 37  2  0  0  0
 37 38  1  0  0  0
 38 39  2  0  0  0
 39 40  1  0  0  0
 40 35  1  0  0  0
 35 34  1  0  0  0
 34 28  1  0  0  0
 28 29  2  0  0  0
 29 30  1  0  0  0
 30 31  2  0  0  0
 31 32  1  0  0  0
 32 33  2  0  0  0
 33 27  1  0  0  0
 27 26  1  0  0  0
 26  1  1  0  0  0
  1  2  2  0  0  0
  1  3  1  0  0  0
  3  4  1  0  0  0
  4  5  1  0  0  0
  5  6  1  0  0  0
  6  7  1  0  0  0
  7  8  1  0  0  0
  8  9  1  0  0  0
  9 10  1  0  0  0
 10 11  1  0  0  0
 11 12  1  0  0  0
 12 13  2  0  0  0
 12 14  1  0  0  0
 12 16  1  0  0  0
 16 17  1  0  0  0
 17 18  1  0  0  0
 18 19  1  0  0  0
 18 22  1  0  0  0
 22 23  2  0  0  0
 22 24  1  0  0  0
 40 41  2  0  0  0
 47 48  1  0  0  0
 48 49  2  0  0  0
 49 44  1  0  0  0
 41 36  1  0  0  0
 33 28  1  0  0  0
 10  5  1  0  0  0
 14 15  1  0  0  0
 19 20  1  0  0  0
 19 21  1  0  0  0
 24 25  1  0  0  0
M  END
> <minimizedAffinity>
-8.79513

> <CNNscore>
0.5192987323

> <CNNaffinity>
6.2610492706

> <CNN_VS>
3.2513549328

> <CNNaffinity_variance>
0.0915001184

$$$$
[H]OC(=O)[C@@]([H])(N([H])[H])C([H])([H])OP(=O)(O[H])O[C@]1([H])C([H])([H])C([H])([H])C([H])([H])O[C@]1([H])C([H])([H])OC(=O)C([H])([H])C([H])([H])c1c([H])c([H])c([H])c([H])c1OC([H])([H])c1c([H])c([H])c([H])c(Oc2c([H])c([H])c(C([H])([H])[H])c([H])c2[H])c1[H]


 49 52  0  0  0  0  0  0  0  0999 V2000
   29.6650  -10.7278   37.8000 C   0  0  0  0  0  0  0  0  0  0  0  0
   29.2814  -11.9035   37.6857 O   0  0  0  0  0  0  0  0  0  0  0  0
   28.9687   -9.9088   38.7205 O   0  0  0  0  0  0  0  0  0  0  0  0
   27.9728  -10.3186   39.5494 C   0  0  0  0  0  0  0  0  0  0  0  0
   26.5887  -10.5042   39.0051 C   0  0  0  0  0  0  0  0  0  0  0  0
   26.1717  -11.8088   38.9862 O   0  0  0  0  0  0  0  0  0  0  0  0
   24.8362  -12.0280   39.2148 C   0  0  0  0  0  0  0  0  0  0  0  0
   23.9047  -10.9879   38.6785 C   0  0  0  0  0  0  0  0  0  0  0  0
   24.3482   -9.5856   38.9007 C   0  0  0  0  0  0  0  0  0  0  0  0
   25.6026   -9.6007   39.7567 C   0  0  0  0  0  0  0  0  0  0  0  0
   25.3656   -9.9794   41.0444 O   0  0  0  0  0  0  0  0  0  0  0  0
   25.6045   -8.8105   42.2095 P   0  0  0  0  0  0  0  0  0  0  0  0
   26.2102   -7.5414   41.7086 O   0  0  0  0  0  0  0  0  0  0  0  0
   24.1295   -8.3733   42.9626 O   0  0  0  0  0  0  0  0  0  0  0  0
   23.9738   -8.9557   43.7218 H   0  0  0  0  0  0  0  0  0  0  0  0
   26.5604   -9.5081   43.4370 O   0  0  0  0  0  0  0  0  0  0  0  0
   26.2430  -10.8465   43.6529 C   0  0  0  0  0  0  0  0  0  0  0  0
   27.4476  -11.6450   43.1794 C   0  0  0  0  0  0  0  0  0  0  0  0
   27.0244  -12.5017   42.1079 N   0  0  0  0  0  0  0  0  0  0  0  0
   26.9892  -12.0315   41.2009 H   0  0  0  0  0  0  0  0  0  0  0  0
   27.4388  -13.4427   42.1202 H   0  0  0  0  0  0  0  0  0  0  0  0
   28.1535  -12.3386   44.2606 C   0  0  0  0  0  0  0  0  0  0  0  0
   27.6523  -12.4461   45.4008 O   0  0  0  0  0  0  0  0  0  0  0  0
   29.3997  -12.8912   44.0355 O   0  0  0  0  0  0  0  0  0  0  0  0
   29.6152  -13.6644   43.4519 H   0  0  0  0  0  0  0  0  0  0  0  0
   30.7710  -10.1475   37.0459 C   0  0  0  0  0  0  0  0  0  0  0  0
   31.5594   -9.0493   37.6292 C   0  0  0  0  0  0  0  0  0  0  0  0
   33.9260   -9.6856   37.0031 C   0  0  0  0  0  0  0  0  0  0  0  0
   35.0528   -9.3864   36.2867 C   0  0  0  0  0  0  0  0  0  0  0  0
   35.1967   -8.1949   35.5639 C   0  0  0  0  0  0  0  0  0  0  0  0
   34.1497   -7.3057   35.5904 C   0  0  0  0  0  0  0  0  0  0  0  0
   33.0101   -7.5821   36.2968 C   0  0  0  0  0  0  0  0  0  0  0  0
   32.8801   -8.7633   37.0047 C   0  0  0  0  0  0  0  0  0  0  0  0
   33.8177  -10.8354   37.7047 O   0  0  0  0  0  0  0  0  0  0  0  0
   33.3047  -12.0714   37.4211 C   0  0  0  0  0  0  0  0  0  0  0  0
   35.0059  -15.3367   36.5216 C   0  0  0  0  0  0  0  0  0  0  0  0
   36.3595  -14.9908   36.5381 C   0  0  0  0  0  0  0  0  0  0  0  0
   36.6514  -13.6858   36.8515 C   0  0  0  0  0  0  0  0  0  0  0  0
   35.6720  -12.7633   37.1343 C   0  0  0  0  0  0  0  0  0  0  0  0
   34.3356  -13.1312   37.1103 C   0  0  0  0  0  0  0  0  0  0  0  0
   34.0217  -14.4216   36.8022 C   0  0  0  0  0  0  0  0  0  0  0  0
   34.7262  -16.6567   36.2088 O   0  0  0  0  0  0  0  0  0  0  0  0
   38.5483  -20.5724   34.9846 C   0  0  0  0  0  0  0  0  0  0  0  0
   37.5391  -19.5417   35.2987 C   0  0  0  0  0  0  0  0  0  0  0  0
   36.9828  -18.7830   34.2776 C   0  0  0  0  0  0  0  0  0  0  0  0
   36.0357  -17.8179   34.6108 C   0  0  0  0  0  0  0  0  0  0  0  0
   35.6472  -17.6034   35.9076 C   0  0  0  0  0  0  0  0  0  0  0  0
   36.2213  -18.3794   36.9146 C   0  0  0  0  0  0  0  0  0  0  0  0
   37.1584  -19.3413   36.6234 C   0  0  0  0  0  0  0  0  0  0  0  0
 43 44  1  0  0  0
 44 45  2  0  0  0
 45 46  1  0  0  0
 46 47  2  0  0  0
 47 42  1  0  0  0
 42 36  1  0  0  0
 36 37  2  0  0  0
 37 38  1  0  0  0
 38 39  2  0  0  0
 39 40  1  0  0  0
 40 35  1  0  0  0
 35 34  1  0  0  0
 34 28  1  0  0  0
 28 29  2  0  0  0
 29 30  1  0  0  0
 30 31  2  0  0  0
 31 32  1  0  0  0
 32 33  2  0  0  0
 33 27  1  0  0  0
 27 26  1  0  0  0
 26  1  1  0  0  0
  1  2  2  0  0  0
  1  3  1  0  0  0
  3  4  1  0  0  0
  4  5  1  0  0  0
  5  6  1  0  0  0
  6  7  1  0  0  0
  7  8  1  0  0  0
  8  9  1  0  0  0
  9 10  1  0  0  0
 10 11  1  0  0  0
 11 12  1  0  0  0
 12 13  2  0  0  0
 12 14  1  0  0  0
 12 16  1  0  0  0
 16 17  1  0  0  0
 17 18  1  0  0  0
 18 19  1  0  0  0
 18 22  1  0  0  0
 22 23  2  0  0  0
 22 24  1  0  0  0
 40 41  2  0  0  0
 47 48  1  0  0  0
 48 49  2  0  0  0
 49 44  1  0  0  0
 41 36  1  0  0  0
 33 28  1  0  0  0
 10  5  1  0  0  0
 14 15  1  0  0  0
 19 20  1  0  0  0
 19 21  1  0  0  0
 24 25  1  0  0  0
M  END
> <minimizedAffinity>
-8.77271

> <CNNscore>
0.5118989348

> <CNNaffinity>
6.7273063660

> <CNN_VS>
3.4437010288

> <CNNaffinity_variance>
0.7349473834

$$$$
[H]OC(=O)[C@@]([H])(N([H])[H])C([H])([H])OP(=O)(O[H])O[C@]1([H])C([H])([H])C([H])([H])C([H])([H])O[C@]1([H])C([H])([H])OC(=O)C([H])([H])C([H])([H])c1c([H])c([H])c([H])c([H])c1OC([H])([H])c1c([H])c([H])c([H])c(Oc2c([H])c([H])c(C([H])([H])[H])c([H])c2[H])c1[H]


 49 52  0  0  0  0  0  0  0  0999 V2000
   32.3035  -12.5780   38.3800 C   0  0  0  0  0  0  0  0  0  0  0  0
   32.8609  -12.8020   39.4670 O   0  0  0  0  0  0  0  0  0  0  0  0
   30.8913  -12.4853   38.3863 O   0  0  0  0  0  0  0  0  0  0  0  0
   30.1557  -11.5572   37.7198 C   0  0  0  0  0  0  0  0  0  0  0  0
   28.9458  -10.9639   38.3761 C   0  0  0  0  0  0  0  0  0  0  0  0
   27.7733  -11.2316   37.7206 O   0  0  0  0  0  0  0  0  0  0  0  0
   26.6582  -11.3971   38.5036 C   0  0  0  0  0  0  0  0  0  0  0  0
   26.5942  -10.5478   39.7330 C   0  0  0  0  0  0  0  0  0  0  0  0
   27.8722  -10.4548   40.4886 C   0  0  0  0  0  0  0  0  0  0  0  0
   28.8857  -11.3878   39.8493 C   0  0  0  0  0  0  0  0  0  0  0  0
   28.5940  -12.7052   40.0417 O   0  0  0  0  0  0  0  0  0  0  0  0
   29.3772  -13.4533   41.3097 P   0  0  0  0  0  0  0  0  0  0  0  0
   29.5301  -14.9314   41.1670 O   0  0  0  0  0  0  0  0  0  0  0  0
   30.9571  -12.8261   41.5209 O   0  0  0  0  0  0  0  0  0  0  0  0
   30.9213  -12.0668   42.1225 H   0  0  0  0  0  0  0  0  0  0  0  0
   28.5284  -13.0553   42.7338 O   0  0  0  0  0  0  0  0  0  0  0  0
   27.1797  -13.3917   42.6526 C   0  0  0  0  0  0  0  0  0  0  0  0
   26.6485  -13.3421   44.0768 C   0  0  0  0  0  0  0  0  0  0  0  0
   27.6441  -12.7231   44.9053 N   0  0  0  0  0  0  0  0  0  0  0  0
   27.6244  -11.7016   44.8706 H   0  0  0  0  0  0  0  0  0  0  0  0
   27.7546  -13.1476   45.8352 H   0  0  0  0  0  0  0  0  0  0  0  0
   26.1755  -14.6381   44.5718 C   0  0  0  0  0  0  0  0  0  0  0  0
   25.0314  -15.0609   44.2982 O   0  0  0  0  0  0  0  0  0  0  0  0
   26.9956  -15.4234   45.3591 O   0  0  0  0  0  0  0  0  0  0  0  0
   27.8332  -15.8788   45.0833 H   0  0  0  0  0  0  0  0  0  0  0  0
   33.0090  -12.4147   37.1133 C   0  0  0  0  0  0  0  0  0  0  0  0
   33.3457  -13.5977   36.3041 C   0  0  0  0  0  0  0  0  0  0  0  0
   34.7262  -15.7149   36.4028 C   0  0  0  0  0  0  0  0  0  0  0  0
   35.9303  -16.2979   36.6902 C   0  0  0  0  0  0  0  0  0  0  0  0
   36.9913  -15.5953   37.2761 C   0  0  0  0  0  0  0  0  0  0  0  0
   36.7909  -14.2671   37.5647 C   0  0  0  0  0  0  0  0  0  0  0  0
   35.5968  -13.6589   37.2845 C   0  0  0  0  0  0  0  0  0  0  0  0
   34.5578  -14.3638   36.7040 C   0  0  0  0  0  0  0  0  0  0  0  0
   33.7127  -16.4184   35.8512 O   0  0  0  0  0  0  0  0  0  0  0  0
   33.6516  -17.4066   34.9072 C   0  0  0  0  0  0  0  0  0  0  0  0
   31.6909  -20.6030   35.4582 C   0  0  0  0  0  0  0  0  0  0  0  0
   32.4275  -21.2452   36.4568 C   0  0  0  0  0  0  0  0  0  0  0  0
   33.5448  -20.5867   36.9089 C   0  0  0  0  0  0  0  0  0  0  0  0
   33.9256  -19.3628   36.4116 C   0  0  0  0  0  0  0  0  0  0  0  0
   33.1782  -18.7466   35.4199 C   0  0  0  0  0  0  0  0  0  0  0  0
   32.0645  -19.3812   34.9558 C   0  0  0  0  0  0  0  0  0  0  0  0
   30.5642  -21.2759   35.0150 O   0  0  0  0  0  0  0  0  0  0  0  0
   26.2313  -22.7867   38.2372 C   0  0  0  0  0  0  0  0  0  0  0  0
   27.3706  -22.3958   37.3837 C   0  0  0  0  0  0  0  0  0  0  0  0
   27.9781  -23.3382   36.5648 C   0  0  0  0  0  0  0  0  0  0  0  0
   29.0518  -22.9348   35.7750 C   0  0  0  0  0  0  0  0  0  0  0  0
   29.5159  -21.6452   35.7896 C   0  0  0  0  0  0  0  0  0  0  0  0
   28.8878  -20.7180   36.6211 C   0  0  0  0  0  0  0  0  0  0  0  0
   27.8252  -21.0796   37.4138 C   0  0  0  0  0  0  0  0  0  0  0  0
 43 44  1  0  0  0
 44 45  2  0  0  0
 45 46  1  0  0  0
 46 47  2  0  0  0
 47 42  1  0  0  0
 42 36  1  0  0  0
 36 37  2  0  0  0
 37 38  1  0  0  0
 38 39  2  0  0  0
 39 40  1  0  0  0
 40 35  1  0  0  0
 35 34  1  0  0  0
 34 28  1  0  0  0
 28 29  2  0  0  0
 29 30  1  0  0  0
 30 31  2  0  0  0
 31 32  1  0  0  0
 32 33  2  0  0  0
 33 27  1  0  0  0
 27 26  1  0  0  0
 26  1  1  0  0  0
  1  2  2  0  0  0
  1  3  1  0  0  0
  3  4  1  0  0  0
  4  5  1  0  0  0
  5  6  1  0  0  0
  6  7  1  0  0  0
  7  8  1  0  0  0
  8  9  1  0  0  0
  9 10  1  0  0  0
 10 11  1  0  0  0
 11 12  1  0  0  0
 12 13  2  0  0  0
 12 14  1  0  0  0
 12 16  1  0  0  0
 16 17  1  0  0  0
 17 18  1  0  0  0
 18 19  1  0  0  0
 18 22  1  0  0  0
 22 23  2  0  0  0
 22 24  1  0  0  0
 40 41  2  0  0  0
 47 48  1  0  0  0
 48 49  2  0  0  0
 49 44  1  0  0  0
 41 36  1  0  0  0
 33 28  1  0  0  0
 10  5  1  0  0  0
 14 15  1  0  0  0
 19 20  1  0  0  0
 19 21  1  0  0  0
 24 25  1  0  0  0
M  END
> <minimizedAffinity>
-7.62241

> <CNNscore>
0.5080133677

> <CNNaffinity>
6.1631875038

> <CNN_VS>
3.1309816837

> <CNNaffinity_variance>
0.1090923399

$$$$
[H]OC(=O)[C@@]([H])(N([H])[H])C([H])([H])OP(=O)(O[H])O[C@]1([H])C([H])([H])C([H])([H])C([H])([H])O[C@]1([H])C([H])([H])OC(=O)C([H])([H])C([H])([H])c1c([H])c([H])c([H])c([H])c1OC([H])([H])c1c([H])c([H])c([H])c(Oc2c([H])c([H])c(C([H])([H])[H])c([H])c2[H])c1[H]


 49 52  0  0  0  0  0  0  0  0999 V2000
   29.9287  -11.3130   37.5822 C   0  0  0  0  0  0  0  0  0  0  0  0
   30.3535  -12.2996   38.2056 O   0  0  0  0  0  0  0  0  0  0  0  0
   28.5374  -11.2608   37.3279 O   0  0  0  0  0  0  0  0  0  0  0  0
   27.5590  -11.2753   38.2710 C   0  0  0  0  0  0  0  0  0  0  0  0
   27.6257  -10.3139   39.4189 C   0  0  0  0  0  0  0  0  0  0  0  0
   26.6949   -9.3110   39.3557 O   0  0  0  0  0  0  0  0  0  0  0  0
   26.1887   -8.8694   40.5526 C   0  0  0  0  0  0  0  0  0  0  0  0
   27.1457   -8.8642   41.7020 C   0  0  0  0  0  0  0  0  0  0  0  0
   27.9999  -10.0779   41.8019 C   0  0  0  0  0  0  0  0  0  0  0  0
   27.5538  -11.0764   40.7482 C   0  0  0  0  0  0  0  0  0  0  0  0
   26.3345  -11.6243   41.0144 O   0  0  0  0  0  0  0  0  0  0  0  0
   26.3381  -13.2130   41.5212 P   0  0  0  0  0  0  0  0  0  0  0  0
   25.0704  -13.6680   42.1649 O   0  0  0  0  0  0  0  0  0  0  0  0
   26.6220  -14.2818   40.2130 O   0  0  0  0  0  0  0  0  0  0  0  0
   27.5767  -14.4166   40.1125 H   0  0  0  0  0  0  0  0  0  0  0  0
   27.6672  -13.4058   42.5715 O   0  0  0  0  0  0  0  0  0  0  0  0
   28.0688  -14.7352   42.6718 C   0  0  0  0  0  0  0  0  0  0  0  0
   29.5784  -14.7325   42.4870 C   0  0  0  0  0  0  0  0  0  0  0  0
   30.1845  -14.4324   43.7533 N   0  0  0  0  0  0  0  0  0  0  0  0
   30.2687  -15.2457   44.3669 H   0  0  0  0  0  0  0  0  0  0  0  0
   31.0017  -13.8104   43.7026 H   0  0  0  0  0  0  0  0  0  0  0  0
   30.0330  -13.8789   41.3856 C   0  0  0  0  0  0  0  0  0  0  0  0
   30.8819  -12.9794   41.5674 O   0  0  0  0  0  0  0  0  0  0  0  0
   29.5246  -14.0555   40.1131 O   0  0  0  0  0  0  0  0  0  0  0  0
   29.6654  -14.8349   39.5150 H   0  0  0  0  0  0  0  0  0  0  0  0
   30.7691  -10.2236   37.0967 C   0  0  0  0  0  0  0  0  0  0  0  0
   31.9060   -9.7576   37.9079 C   0  0  0  0  0  0  0  0  0  0  0  0
   34.1751  -10.1556   36.8636 C   0  0  0  0  0  0  0  0  0  0  0  0
   35.1803   -9.6806   36.0658 C   0  0  0  0  0  0  0  0  0  0  0  0
   35.1889   -8.3765   35.5540 C   0  0  0  0  0  0  0  0  0  0  0  0
   34.1336   -7.5594   35.8800 C   0  0  0  0  0  0  0  0  0  0  0  0
   33.1137   -8.0109   36.6738 C   0  0  0  0  0  0  0  0  0  0  0  0
   33.1165   -9.3016   37.1711 C   0  0  0  0  0  0  0  0  0  0  0  0
   34.1976  -11.4133   37.3574 O   0  0  0  0  0  0  0  0  0  0  0  0
   33.6853  -12.6069   36.9284 C   0  0  0  0  0  0  0  0  0  0  0  0
   35.4692  -15.8534   36.1261 C   0  0  0  0  0  0  0  0  0  0  0  0
   36.6016  -15.7897   36.9422 C   0  0  0  0  0  0  0  0  0  0  0  0
   36.7236  -14.6706   37.7290 C   0  0  0  0  0  0  0  0  0  0  0  0
   35.7882  -13.6630   37.7204 C   0  0  0  0  0  0  0  0  0  0  0  0
   34.6735  -13.7493   36.9008 C   0  0  0  0  0  0  0  0  0  0  0  0
   34.5308  -14.8514   36.1110 C   0  0  0  0  0  0  0  0  0  0  0  0
   35.3563  -16.9893   35.3416 O   0  0  0  0  0  0  0  0  0  0  0  0
   31.1791  -20.7190   35.6241 C   0  0  0  0  0  0  0  0  0  0  0  0
   32.2841  -19.7426   35.5539 C   0  0  0  0  0  0  0  0  0  0  0  0
   33.3447  -19.8314   36.4456 C   0  0  0  0  0  0  0  0  0  0  0  0
   34.3683  -18.8919   36.3521 C   0  0  0  0  0  0  0  0  0  0  0  0
   34.3508  -17.8945   35.4122 C   0  0  0  0  0  0  0  0  0  0  0  0
   33.2739  -17.8277   34.5281 C   0  0  0  0  0  0  0  0  0  0  0  0
   32.2462  -18.7378   34.5901 C   0  0  0  0  0  0  0  0  0  0  0  0
 43 44  1  0  0  0
 44 45  2  0  0  0
 45 46  1  0  0  0
 46 47  2  0  0  0
 47 42  1  0  0  0
 42 36  1  0  0  0
 36 37  2  0  0  0
 37 38  1  0  0  0
 38 39  2  0  0  0
 39 40  1  0  0  0
 40 35  1  0  0  0
 35 34  1  0  0  0
 34 28  1  0  0  0
 28 29  2  0  0  0
 29 30  1  0  0  0
 30 31  2  0  0  0
 31 32  1  0  0  0
 32 33  2  0  0  0
 33 27  1  0  0  0
 27 26  1  0  0  0
 26  1  1  0  0  0
  1  2  2  0  0  0
  1  3  1  0  0  0
  3  4  1  0  0  0
  4  5  1  0  0  0
  5  6  1  0  0  0
  6  7  1  0  0  0
  7  8  1  0  0  0
  8  9  1  0  0  0
  9 10  1  0  0  0
 10 11  1  0  0  0
 11 12  1  0  0  0
 12 13  2  0  0  0
 12 14  1  0  0  0
 12 16  1  0  0  0
 16 17  1  0  0  0
 17 18  1  0  0  0
 18 19  1  0  0  0
 18 22  1  0  0  0
 22 23  2  0  0  0
 22 24  1  0  0  0
 40 41  2  0  0  0
 47 48  1  0  0  0
 48 49  2  0  0  0
 49 44  1  0  0  0
 41 36  1  0  0  0
 33 28  1  0  0  0
 10  5  1  0  0  0
 14 15  1  0  0  0
 19 20  1  0  0  0
 19 21  1  0  0  0
 24 25  1  0  0  0
M  END
> <minimizedAffinity>
-8.93044

> <CNNscore>
0.4474666715

> <CNNaffinity>
6.7146363258

> <CNN_VS>
3.0045759678

> <CNNaffinity_variance>
0.3874503970

$$$$
[H]OC(=O)[C@@]([H])(N([H])[H])C([H])([H])OP(=O)(O[H])O[C@]1([H])C([H])([H])C([H])([H])C([H])([H])O[C@]1([H])C([H])([H])OC(=O)C([H])([H])C([H])([H])c1c([H])c([H])c([H])c([H])c1OC([H])([H])c1c([H])c([H])c([H])c(Oc2c([H])c([H])c(C([H])([H])[H])c([H])c2[H])c1[H]


 49 52  0  0  0  0  0  0  0  0999 V2000
   30.0714  -11.1914   37.5438 C   0  0  0  0  0  0  0  0  0  0  0  0
   30.5094  -12.2869   37.9317 O   0  0  0  0  0  0  0  0  0  0  0  0
   28.7007  -10.9262   37.7754 O   0  0  0  0  0  0  0  0  0  0  0  0
   27.9030  -11.5896   38.6532 C   0  0  0  0  0  0  0  0  0  0  0  0
   27.4618  -10.9060   39.9119 C   0  0  0  0  0  0  0  0  0  0  0  0
   26.1671  -11.1797   40.2658 O   0  0  0  0  0  0  0  0  0  0  0  0
   25.9010  -11.2462   41.6106 C   0  0  0  0  0  0  0  0  0  0  0  0
   26.6788  -10.3058   42.4753 C   0  0  0  0  0  0  0  0  0  0  0  0
   28.1231  -10.2025   42.1350 C   0  0  0  0  0  0  0  0  0  0  0  0
   28.4423  -11.2163   41.0503 C   0  0  0  0  0  0  0  0  0  0  0  0
   28.3965  -12.5044   41.4935 O   0  0  0  0  0  0  0  0  0  0  0  0
   29.8034  -13.3857   41.3362 P   0  0  0  0  0  0  0  0  0  0  0  0
   29.6889  -14.6002   40.4758 O   0  0  0  0  0  0  0  0  0  0  0  0
   31.0590  -12.4363   40.6606 O   0  0  0  0  0  0  0  0  0  0  0  0
   31.5384  -11.9872   41.3736 H   0  0  0  0  0  0  0  0  0  0  0  0
   30.3253  -13.7900   42.9082 O   0  0  0  0  0  0  0  0  0  0  0  0
   29.6026  -14.8525   43.4443 C   0  0  0  0  0  0  0  0  0  0  0  0
   29.3417  -14.4912   44.8983 C   0  0  0  0  0  0  0  0  0  0  0  0
   28.5477  -15.5341   45.4839 N   0  0  0  0  0  0  0  0  0  0  0  0
   29.0969  -16.3398   45.7908 H   0  0  0  0  0  0  0  0  0  0  0  0
   27.8152  -15.2074   46.1273 H   0  0  0  0  0  0  0  0  0  0  0  0
   28.7924  -13.1443   45.0785 C   0  0  0  0  0  0  0  0  0  0  0  0
   27.6183  -12.8708   44.7474 O   0  0  0  0  0  0  0  0  0  0  0  0
   29.5721  -12.1421   45.6232 O   0  0  0  0  0  0  0  0  0  0  0  0
   29.9104  -12.0860   46.5545 H   0  0  0  0  0  0  0  0  0  0  0  0
   30.8742  -10.1791   36.8659 C   0  0  0  0  0  0  0  0  0  0  0  0
   31.7668   -9.3072   37.6476 C   0  0  0  0  0  0  0  0  0  0  0  0
   34.1314   -9.7551   36.8690 C   0  0  0  0  0  0  0  0  0  0  0  0
   35.2080   -9.3316   36.1383 C   0  0  0  0  0  0  0  0  0  0  0  0
   35.2591   -8.0732   35.5246 C   0  0  0  0  0  0  0  0  0  0  0  0
   34.1712   -7.2479   35.6765 C   0  0  0  0  0  0  0  0  0  0  0  0
   33.0802   -7.6486   36.3999 C   0  0  0  0  0  0  0  0  0  0  0  0
   33.0418   -8.8947   36.9992 C   0  0  0  0  0  0  0  0  0  0  0  0
   34.1127  -10.9683   37.4641 O   0  0  0  0  0  0  0  0  0  0  0  0
   33.8107  -12.2299   37.0300 C   0  0  0  0  0  0  0  0  0  0  0  0
   35.8658  -15.4138   37.0938 C   0  0  0  0  0  0  0  0  0  0  0  0
   37.1697  -14.9331   37.2395 C   0  0  0  0  0  0  0  0  0  0  0  0
   37.3116  -13.5690   37.3144 C   0  0  0  0  0  0  0  0  0  0  0  0
   36.2357  -12.7156   37.2497 C   0  0  0  0  0  0  0  0  0  0  0  0
   34.9516  -13.2173   37.1039 C   0  0  0  0  0  0  0  0  0  0  0  0
   34.7861  -14.5684   37.0279 C   0  0  0  0  0  0  0  0  0  0  0  0
   35.7368  -16.7911   37.0246 O   0  0  0  0  0  0  0  0  0  0  0  0
   38.7900  -20.1802   33.7639 C   0  0  0  0  0  0  0  0  0  0  0  0
   37.9921  -19.2886   34.6287 C   0  0  0  0  0  0  0  0  0  0  0  0
   38.1722  -19.3156   36.0052 C   0  0  0  0  0  0  0  0  0  0  0  0
   37.4005  -18.4628   36.7904 C   0  0  0  0  0  0  0  0  0  0  0  0
   36.4789  -17.6099   36.2408 C   0  0  0  0  0  0  0  0  0  0  0  0
   36.3177  -17.6024   34.8553 C   0  0  0  0  0  0  0  0  0  0  0  0
   37.0619  -18.4293   34.0488 C   0  0  0  0  0  0  0  0  0  0  0  0
 43 44  1  0  0  0
 44 45  2  0  0  0
 45 46  1  0  0  0
 46 47  2  0  0  0
 47 42  1  0  0  0
 42 36  1  0  0  0
 36 37  2  0  0  0
 37 38  1  0  0  0
 38 39  2  0  0  0
 39 40  1  0  0  0
 40 35  1  0  0  0
 35 34  1  0  0  0
 34 28  1  0  0  0
 28 29  2  0  0  0
 29 30  1  0  0  0
 30 31  2  0  0  0
 31 32  1  0  0  0
 32 33  2  0  0  0
 33 27  1  0  0  0
 27 26  1  0  0  0
 26  1  1  0  0  0
  1  2  2  0  0  0
  1  3  1  0  0  0
  3  4  1  0  0  0
  4  5  1  0  0  0
  5  6  1  0  0  0
  6  7  1  0  0  0
  7  8  1  0  0  0
  8  9  1  0  0  0
  9 10  1  0  0  0
 10 11  1  0  0  0
 11 12  1  0  0  0
 12 13  2  0  0  0
 12 14  1  0  0  0
 12 16  1  0  0  0
 16 17  1  0  0  0
 17 18  1  0  0  0
 18 19  1  0  0  0
 18 22  1  0  0  0
 22 23  2  0  0  0
 22 24  1  0  0  0
 40 41  2  0  0  0
 47 48  1  0  0  0
 48 49  2  0  0  0
 49 44  1  0  0  0
 41 36  1  0  0  0
 33 28  1  0  0  0
 10  5  1  0  0  0
 14 15  1  0  0  0
 19 20  1  0  0  0
 19 21  1  0  0  0
 24 25  1  0  0  0
M  END
> <minimizedAffinity>
-8.84140

> <CNNscore>
0.4085112810

> <CNNaffinity>
6.4804444313

> <CNN_VS>
2.6473345757

> <CNNaffinity_variance>
0.1353778541

$$$$
[H]OC(=O)[C@@]([H])(N([H])[H])C([H])([H])OP(=O)(O[H])O[C@]1([H])C([H])([H])C([H])([H])C([H])([H])O[C@]1([H])C([H])([H])OC(=O)C([H])([H])C([H])([H])c1c([H])c([H])c([H])c([H])c1OC([H])([H])c1c([H])c([H])c([H])c(Oc2c([H])c([H])c(C([H])([H])[H])c([H])c2[H])c1[H]


 49 52  0  0  0  0  0  0  0  0999 V2000
   29.6413  -11.1226   37.8311 C   0  0  0  0  0  0  0  0  0  0  0  0
   29.9845  -11.6994   38.8760 O   0  0  0  0  0  0  0  0  0  0  0  0
   28.3251  -11.3575   37.3671 O   0  0  0  0  0  0  0  0  0  0  0  0
   27.3362  -11.9721   38.0680 C   0  0  0  0  0  0  0  0  0  0  0  0
   26.0958  -11.2078   38.4196 C   0  0  0  0  0  0  0  0  0  0  0  0
   24.9521  -11.9607   38.3811 O   0  0  0  0  0  0  0  0  0  0  0  0
   23.9825  -11.6488   39.3010 C   0  0  0  0  0  0  0  0  0  0  0  0
   23.8543  -10.1989   39.6454 C   0  0  0  0  0  0  0  0  0  0  0  0
   25.1483   -9.4937   39.8475 C   0  0  0  0  0  0  0  0  0  0  0  0
   26.2743  -10.5102   39.7743 C   0  0  0  0  0  0  0  0  0  0  0  0
   26.2989  -11.3573   40.8417 O   0  0  0  0  0  0  0  0  0  0  0  0
   27.6240  -11.2344   41.8465 P   0  0  0  0  0  0  0  0  0  0  0  0
   28.6093  -10.1824   41.4580 O   0  0  0  0  0  0  0  0  0  0  0  0
   27.1534  -10.8798   43.4549 O   0  0  0  0  0  0  0  0  0  0  0  0
   26.9949  -11.7092   43.9313 H   0  0  0  0  0  0  0  0  0  0  0  0
   28.3562  -12.7730   41.9084 O   0  0  0  0  0  0  0  0  0  0  0  0
   27.4377  -13.7806   42.1907 C   0  0  0  0  0  0  0  0  0  0  0  0
   27.4965  -14.7434   41.0149 C   0  0  0  0  0  0  0  0  0  0  0  0
   26.6900  -15.8879   41.3320 N   0  0  0  0  0  0  0  0  0  0  0  0
   25.6934  -15.7449   41.1551 H   0  0  0  0  0  0  0  0  0  0  0  0
   27.0839  -16.7886   41.0306 H   0  0  0  0  0  0  0  0  0  0  0  0
   28.8613  -15.0686   40.5907 C   0  0  0  0  0  0  0  0  0  0  0  0
   29.4839  -16.0331   41.0855 O   0  0  0  0  0  0  0  0  0  0  0  0
   29.4905  -14.3053   39.6261 O   0  0  0  0  0  0  0  0  0  0  0  0
   29.2502  -14.2373   38.6656 H   0  0  0  0  0  0  0  0  0  0  0  0
   30.5060  -10.2353   37.0604 C   0  0  0  0  0  0  0  0  0  0  0  0
   31.3085   -9.2121   37.7512 C   0  0  0  0  0  0  0  0  0  0  0  0
   33.7108   -9.7614   37.1812 C   0  0  0  0  0  0  0  0  0  0  0  0
   34.8416   -9.4226   36.4891 C   0  0  0  0  0  0  0  0  0  0  0  0
   34.9572   -8.2290   35.7647 C   0  0  0  0  0  0  0  0  0  0  0  0
   33.8773   -7.3796   35.7639 C   0  0  0  0  0  0  0  0  0  0  0  0
   32.7331   -7.6961   36.4456 C   0  0  0  0  0  0  0  0  0  0  0  0
   32.6313   -8.8790   37.1554 C   0  0  0  0  0  0  0  0  0  0  0  0
   33.6297  -10.9121   37.8851 O   0  0  0  0  0  0  0  0  0  0  0  0
   33.2054  -12.1771   37.5834 C   0  0  0  0  0  0  0  0  0  0  0  0
   35.1084  -15.2257   36.3793 C   0  0  0  0  0  0  0  0  0  0  0  0
   36.4372  -14.7969   36.4313 C   0  0  0  0  0  0  0  0  0  0  0  0
   36.6462  -13.5117   36.8686 C   0  0  0  0  0  0  0  0  0  0  0  0
   35.6109  -12.6852   37.2364 C   0  0  0  0  0  0  0  0  0  0  0  0
   34.3008  -13.1341   37.1747 C   0  0  0  0  0  0  0  0  0  0  0  0
   34.0688  -14.4066   36.7441 C   0  0  0  0  0  0  0  0  0  0  0  0
   34.9125  -16.5250   35.9412 O   0  0  0  0  0  0  0  0  0  0  0  0
   38.4465  -20.8026   36.7494 C   0  0  0  0  0  0  0  0  0  0  0  0
   37.5149  -19.6757   36.5452 C   0  0  0  0  0  0  0  0  0  0  0  0
   36.5993  -19.3457   37.5355 C   0  0  0  0  0  0  0  0  0  0  0  0
   35.7341  -18.2785   37.3077 C   0  0  0  0  0  0  0  0  0  0  0  0
   35.7661  -17.5576   36.1424 C   0  0  0  0  0  0  0  0  0  0  0  0
   36.6957  -17.9097   35.1638 C   0  0  0  0  0  0  0  0  0  0  0  0
   37.5656  -18.9563   35.3537 C   0  0  0  0  0  0  0  0  0  0  0  0
 43 44  1  0  0  0
 44 45  2  0  0  0
 45 46  1  0  0  0
 46 47  2  0  0  0
 47 42  1  0  0  0
 42 36  1  0  0  0
 36 37  2  0  0  0
 37 38  1  0  0  0
 38 39  2  0  0  0
 39 40  1  0  0  0
 40 35  1  0  0  0
 35 34  1  0  0  0
 34 28  1  0  0  0
 28 29  2  0  0  0
 29 30  1  0  0  0
 30 31  2  0  0  0
 31 32  1  0  0  0
 32 33  2  0  0  0
 33 27  1  0  0  0
 27 26  1  0  0  0
 26  1  1  0  0  0
  1  2  2  0  0  0
  1  3  1  0  0  0
  3  4  1  0  0  0
  4  5  1  0  0  0
  5  6  1  0  0  0
  6  7  1  0  0  0
  7  8  1  0  0  0
  8  9  1  0  0  0
  9 10  1  0  0  0
 10 11  1  0  0  0
 11 12  1  0  0  0
 12 13  2  0  0  0
 12 14  1  0  0  0
 12 16  1  0  0  0
 16 17  1  0  0  0
 17 18  1  0  0  0
 18 19  1  0  0  0
 18 22  1  0  0  0
 22 23  2  0  0  0
 22 24  1  0  0  0
 40 41  2  0  0  0
 47 48  1  0  0  0
 48 49  2  0  0  0
 49 44  1  0  0  0
 41 36  1  0  0  0
 33 28  1  0  0  0
 10  5  1  0  0  0
 14 15  1  0  0  0
 19 20  1  0  0  0
 19 21  1  0  0  0
 24 25  1  0  0  0
M  END
> <minimizedAffinity>
-9.00464

> <CNNscore>
0.3633470237

> <CNNaffinity>
6.4025983810

> <CNN_VS>
2.3263649940

> <CNNaffinity_variance>
0.2903822958

$$$$
[H]OC(=O)[C@@]([H])(N([H])[H])C([H])([H])OP(=O)(O[H])O[C@]1([H])C([H])([H])C([H])([H])C([H])([H])O[C@]1([H])C([H])([H])OC(=O)C([H])([H])C([H])([H])c1c([H])c([H])c([H])c([H])c1OC([H])([H])c1c([H])c([H])c([H])c(Oc2c([H])c([H])c(C([H])([H])[H])c([H])c2[H])c1[H]


 49 52  0  0  0  0  0  0  0  0999 V2000
   29.3408  -10.6139   37.8478 C   0  0  0  0  0  0  0  0  0  0  0  0
   28.5581  -11.4615   37.3879 O   0  0  0  0  0  0  0  0  0  0  0  0
   29.0329  -10.0743   39.1193 O   0  0  0  0  0  0  0  0  0  0  0  0
   27.9687   -9.2791   39.4055 C   0  0  0  0  0  0  0  0  0  0  0  0
   27.7649   -8.7953   40.8095 C   0  0  0  0  0  0  0  0  0  0  0  0
   26.6315   -8.0447   40.9772 O   0  0  0  0  0  0  0  0  0  0  0  0
   25.9884   -8.1682   42.1835 C   0  0  0  0  0  0  0  0  0  0  0  0
   26.8705   -8.3788   43.3728 C   0  0  0  0  0  0  0  0  0  0  0  0
   27.9765   -9.3503   43.1593 C   0  0  0  0  0  0  0  0  0  0  0  0
   27.8160   -9.9777   41.7857 C   0  0  0  0  0  0  0  0  0  0  0  0
   26.7459  -10.8179   41.7043 O   0  0  0  0  0  0  0  0  0  0  0  0
   27.0654  -12.3645   41.1686 P   0  0  0  0  0  0  0  0  0  0  0  0
   26.3294  -13.4427   41.8926 O   0  0  0  0  0  0  0  0  0  0  0  0
   26.6688  -12.5424   39.5118 O   0  0  0  0  0  0  0  0  0  0  0  0
   27.4381  -12.3043   38.9721 H   0  0  0  0  0  0  0  0  0  0  0  0
   28.7519  -12.5953   41.2669 O   0  0  0  0  0  0  0  0  0  0  0  0
   29.0817  -13.8649   41.7339 C   0  0  0  0  0  0  0  0  0  0  0  0
   29.4287  -14.6877   40.5029 C   0  0  0  0  0  0  0  0  0  0  0  0
   29.6939  -13.7837   39.4196 N   0  0  0  0  0  0  0  0  0  0  0  0
   30.6445  -13.4079   39.4268 H   0  0  0  0  0  0  0  0  0  0  0  0
   29.3279  -14.0861   38.5075 H   0  0  0  0  0  0  0  0  0  0  0  0
   28.4401  -15.7243   40.1925 C   0  0  0  0  0  0  0  0  0  0  0  0
   28.5832  -16.9003   40.5917 O   0  0  0  0  0  0  0  0  0  0  0  0
   27.3204  -15.4160   39.4441 O   0  0  0  0  0  0  0  0  0  0  0  0
   26.5646  -14.8305   39.7106 H   0  0  0  0  0  0  0  0  0  0  0  0
   30.5383  -10.1429   37.1601 C   0  0  0  0  0  0  0  0  0  0  0  0
   31.3353   -9.0499   37.7416 C   0  0  0  0  0  0  0  0  0  0  0  0
   33.7145   -9.6919   37.1712 C   0  0  0  0  0  0  0  0  0  0  0  0
   34.8473   -9.4141   36.4557 C   0  0  0  0  0  0  0  0  0  0  0  0
   34.9901   -8.2538   35.6837 C   0  0  0  0  0  0  0  0  0  0  0  0
   33.9355   -7.3735   35.6595 C   0  0  0  0  0  0  0  0  0  0  0  0
   32.7897   -7.6290   36.3639 C   0  0  0  0  0  0  0  0  0  0  0  0
   32.6610   -8.7796   37.1207 C   0  0  0  0  0  0  0  0  0  0  0  0
   33.6072  -10.8113   37.9207 O   0  0  0  0  0  0  0  0  0  0  0  0
   33.1182  -12.0662   37.6814 C   0  0  0  0  0  0  0  0  0  0  0  0
   34.8015  -15.1708   36.3053 C   0  0  0  0  0  0  0  0  0  0  0  0
   36.1512  -14.8096   36.2995 C   0  0  0  0  0  0  0  0  0  0  0  0
   36.4467  -13.5488   36.7573 C   0  0  0  0  0  0  0  0  0  0  0  0
   35.4744  -12.6827   37.1984 C   0  0  0  0  0  0  0  0  0  0  0  0
   34.1418  -13.0645   37.1931 C   0  0  0  0  0  0  0  0  0  0  0  0
   33.8243  -14.3117   36.7435 C   0  0  0  0  0  0  0  0  0  0  0  0
   34.5182  -16.4463   35.8457 O   0  0  0  0  0  0  0  0  0  0  0  0
   38.0972  -20.7624   35.7905 C   0  0  0  0  0  0  0  0  0  0  0  0
   37.1570  -19.6244   35.8133 C   0  0  0  0  0  0  0  0  0  0  0  0
   36.6718  -19.1509   37.0250 C   0  0  0  0  0  0  0  0  0  0  0  0
   35.7846  -18.0776   37.0086 C   0  0  0  0  0  0  0  0  0  0  0  0
   35.3849  -17.4876   35.8378 C   0  0  0  0  0  0  0  0  0  0  0  0
   35.8873  -17.9823   34.6343 C   0  0  0  0  0  0  0  0  0  0  0  0
   36.7650  -19.0394   34.6116 C   0  0  0  0  0  0  0  0  0  0  0  0
 43 44  1  0  0  0
 44 45  2  0  0  0
 45 46  1  0  0  0
 46 47  2  0  0  0
 47 42  1  0  0  0
 42 36  1  0  0  0
 36 37  2  0  0  0
 37 38  1  0  0  0
 38 39  2  0  0  0
 39 40  1  0  0  0
 40 35  1  0  0  0
 35 34  1  0  0  0
 34 28  1  0  0  0
 28 29  2  0  0  0
 29 30  1  0  0  0
 30 31  2  0  0  0
 31 32  1  0  0  0
 32 33  2  0  0  0
 33 27  1  0  0  0
 27 26  1  0  0  0
 26  1  1  0  0  0
  1  2  2  0  0  0
  1  3  1  0  0  0
  3  4  1  0  0  0
  4  5  1  0  0  0
  5  6  1  0  0  0
  6  7  1  0  0  0
  7  8  1  0  0  0
  8  9  1  0  0  0
  9 10  1  0  0  0
 10 11  1  0  0  0
 11 12  1  0  0  0
 12 13  2  0  0  0
 12 14  1  0  0  0
 12 16  1  0  0  0
 16 17  1  0  0  0
 17 18  1  0  0  0
 18 19  1  0  0  0
 18 22  1  0  0  0
 22 23  2  0  0  0
 22 24  1  0  0  0
 40 41  2  0  0  0
 47 48  1  0  0  0
 48 49  2  0  0  0
 49 44  1  0  0  0
 41 36  1  0  0  0
 33 28  1  0  0  0
 10  5  1  0  0  0
 14 15  1  0  0  0
 19 20  1  0  0  0
 19 21  1  0  0  0
 24 25  1  0  0  0
M  END
> <minimizedAffinity>
-9.13100

> <CNNscore>
0.3591223955

> <CNNaffinity>
6.5572876930

> <CNN_VS>
2.3548688889

> <CNNaffinity_variance>
0.2711035311

$$$$
[H]C([H])([H])C1([H])OC([H])(C([H])([H])[N+](C([H])([H])[H])(C([H])([H])[H])C([H])([H])[H])C([H])([H])OC1([H])[H].[I-]


 12 12  0  0  0  0  0  0  0  0999 V2000
   35.2269  -20.0922   39.8420 C   0  0  0  0  0  0  0  0  0  0  0  0
   34.9140  -20.7340   38.4860 C   0  0  0  0  0  0  0  0  0  0  0  0
   34.0641  -21.9552   38.7925 C   0  0  0  0  0  0  0  0  0  0  0  0
   32.7255  -21.5442   38.5867 O   0  0  0  0  0  0  0  0  0  0  0  0
   32.6004  -21.4172   37.1889 C   0  0  0  0  0  0  0  0  0  0  0  0
   33.5486  -20.3496   36.6552 C   0  0  0  0  0  0  0  0  0  0  0  0
   34.2712  -19.8098   37.7043 O   0  0  0  0  0  0  0  0  0  0  0  0
   32.7179  -19.3004   35.9907 C   0  0  0  0  0  0  0  0  0  0  0  0
   32.9615  -19.1007   34.6128 N   0  0  0  0  0  0  0  0  0  0  0  0
   33.1907  -17.6693   34.3573 C   0  0  0  0  0  0  0  0  0  0  0  0
   31.7610  -19.4860   33.8544 C   0  0  0  0  0  0  0  0  0  0  0  0
   34.0598  -19.8133   34.0556 C   0  0  0  0  0  0  0  0  0  0  0  0
  1  2  1  0  0  0
  2  3  1  0  0  0
  3  4  1  0  0  0
  4  5  1  0  0  0
  5  6  1  0  0  0
  6  8  1  0  0  0
  8  9  1  0  0  0
  9 10  1  0  0  0
  9 11  1  0  0  0
  9 12  1  0  0  0
  6  7  1  0  0  0
  7  2  1  0  0  0
M  CHG 1   9   1
M  END
> <minimizedAffinity>
-2.96892

> <CNNscore>
0.8250027895

> <CNNaffinity>
3.0629773140

> <CNN_VS>
2.5269649029

> <CNNaffinity_variance>
0.2268793136

$$$$
[H]C([H])([H])C1([H])OC([H])(C([H])([H])[N+](C([H])([H])[H])(C([H])([H])[H])C([H])([H])[H])C([H])([H])OC1([H])[H].[I-]


 12 12  0  0  0  0  0  0  0  0999 V2000
   30.1708  -22.3074   37.4765 C   0  0  0  0  0  0  0  0  0  0  0  0
   30.5282  -21.6656   36.1316 C   0  0  0  0  0  0  0  0  0  0  0  0
   29.2217  -21.1367   35.5654 C   0  0  0  0  0  0  0  0  0  0  0  0
   29.1984  -19.7601   35.8933 O   0  0  0  0  0  0  0  0  0  0  0  0
   30.1653  -19.1747   35.0518 C   0  0  0  0  0  0  0  0  0  0  0  0
   31.5498  -19.7437   35.3403 C   0  0  0  0  0  0  0  0  0  0  0  0
   31.4595  -20.6843   36.3508 O   0  0  0  0  0  0  0  0  0  0  0  0
   32.4271  -18.6069   35.7533 C   0  0  0  0  0  0  0  0  0  0  0  0
   33.7802  -18.6942   35.3541 N   0  0  0  0  0  0  0  0  0  0  0  0
   34.5689  -19.3217   36.4268 C   0  0  0  0  0  0  0  0  0  0  0  0
   34.3122  -17.3351   35.1680 C   0  0  0  0  0  0  0  0  0  0  0  0
   34.0402  -19.4171   34.1564 C   0  0  0  0  0  0  0  0  0  0  0  0
  1  2  1  0  0  0
  2  3  1  0  0  0
  3  4  1  0  0  0
  4  5  1  0  0  0
  5  6  1  0  0  0
  6  8  1  0  0  0
  8  9  1  0  0  0
  9 10  1  0  0  0
  9 11  1  0  0  0
  9 12  1  0  0  0
  6  7  1  0  0  0
  7  2  1  0  0  0
M  CHG 1   9   1
M  END
> <minimizedAffinity>
-3.40048

> <CNNscore>
0.8103677630

> <CNNaffinity>
3.1870374680

> <CNN_VS>
2.5826723576

> <CNNaffinity_variance>
0.4791315198

$$$$
[H]C([H])([H])C1([H])OC([H])(C([H])([H])[N+](C([H])([H])[H])(C([H])([H])[H])C([H])([H])[H])C([H])([H])OC1([H])[H].[I-]


 12 12  0  0  0  0  0  0  0  0999 V2000
   32.2231  -21.7413   34.3989 C   0  0  0  0  0  0  0  0  0  0  0  0
   32.6922  -20.3179   34.0789 C   0  0  0  0  0  0  0  0  0  0  0  0
   31.5219  -19.4106   34.4175 C   0  0  0  0  0  0  0  0  0  0  0  0
   31.7978  -18.9059   35.7106 O   0  0  0  0  0  0  0  0  0  0  0  0
   32.8566  -17.9955   35.5217 C   0  0  0  0  0  0  0  0  0  0  0  0
   34.0910  -18.7059   34.9781 C   0  0  0  0  0  0  0  0  0  0  0  0
   33.8146  -20.0522   34.8191 O   0  0  0  0  0  0  0  0  0  0  0  0
   35.1964  -18.5062   35.9634 C   0  0  0  0  0  0  0  0  0  0  0  0
   36.3560  -17.8666   35.4694 N   0  0  0  0  0  0  0  0  0  0  0  0
   37.5371  -18.3637   36.1936 C   0  0  0  0  0  0  0  0  0  0  0  0
   36.2594  -16.4241   35.7430 C   0  0  0  0  0  0  0  0  0  0  0  0
   36.6160  -18.0160   34.0784 C   0  0  0  0  0  0  0  0  0  0  0  0
  1  2  1  0  0  0
  2  3  1  0  0  0
  3  4  1  0  0  0
  4  5  1  0  0  0
  5  6  1  0  0  0
  6  8  1  0  0  0
  8  9  1  0  0  0
  9 10  1  0  0  0
  9 11  1  0  0  0
  9 12  1  0  0  0
  6  7  1  0  0  0
  7  2  1  0  0  0
M  CHG 1   9   1
M  END
> <minimizedAffinity>
-3.77455

> <CNNscore>
0.7875660062

> <CNNaffinity>
3.3120207787

> <CNN_VS>
2.6084349155

> <CNNaffinity_variance>
0.4445884824

$$$$
[H]C([H])([H])C1([H])OC([H])(C([H])([H])[N+](C([H])([H])[H])(C([H])([H])[H])C([H])([H])[H])C([H])([H])OC1([H])[H].[I-]


 12 12  0  0  0  0  0  0  0  0999 V2000
   29.9915  -19.1417   34.8528 C   0  0  0  0  0  0  0  0  0  0  0  0
   31.2334  -20.0369   34.7843 C   0  0  0  0  0  0  0  0  0  0  0  0
   32.3912  -19.1752   35.2578 C   0  0  0  0  0  0  0  0  0  0  0  0
   32.5761  -19.5079   36.6209 O   0  0  0  0  0  0  0  0  0  0  0  0
   33.1347  -20.8014   36.6016 C   0  0  0  0  0  0  0  0  0  0  0  0
   32.1741  -21.7964   35.9603 C   0  0  0  0  0  0  0  0  0  0  0  0
   31.0209  -21.1381   35.5721 O   0  0  0  0  0  0  0  0  0  0  0  0
   31.8663  -22.8460   36.9782 C   0  0  0  0  0  0  0  0  0  0  0  0
   32.0526  -24.1838   36.5617 N   0  0  0  0  0  0  0  0  0  0  0  0
   31.3225  -25.0859   37.4671 C   0  0  0  0  0  0  0  0  0  0  0  0
   33.4795  -24.5249   36.6734 C   0  0  0  0  0  0  0  0  0  0  0  0
   31.6469  -24.4944   35.2337 C   0  0  0  0  0  0  0  0  0  0  0  0
  1  2  1  0  0  0
  2  3  1  0  0  0
  3  4  1  0  0  0
  4  5  1  0  0  0
  5  6  1  0  0  0
  6  8  1  0  0  0
  8  9  1  0  0  0
  9 10  1  0  0  0
  9 11  1  0  0  0
  9 12  1  0  0  0
  6  7  1  0  0  0
  7  2  1  0  0  0
M  CHG 1   9   1
M  END
> <minimizedAffinity>
-2.56324

> <CNNscore>
0.7532682419

> <CNNaffinity>
2.8989064693

> <CNN_VS>
2.1836540699

> <CNNaffinity_variance>
0.1854694337

$$$$
[H]C([H])([H])C1([H])OC([H])(C([H])([H])[N+](C([H])([H])[H])(C([H])([H])[H])C([H])([H])[H])C([H])([H])OC1([H])[H].[I-]


 12 12  0  0  0  0  0  0  0  0999 V2000
   36.0306  -16.2027   35.9517 C   0  0  0  0  0  0  0  0  0  0  0  0
   35.8372  -17.6977   35.6759 C   0  0  0  0  0  0  0  0  0  0  0  0
   36.5927  -18.4226   36.7764 C   0  0  0  0  0  0  0  0  0  0  0  0
   35.6162  -18.7647   37.7420 O   0  0  0  0  0  0  0  0  0  0  0  0
   34.8664  -19.7967   37.1435 C   0  0  0  0  0  0  0  0  0  0  0  0
   34.1782  -19.3012   35.8766 C   0  0  0  0  0  0  0  0  0  0  0  0
   34.4939  -17.9699   35.6720 O   0  0  0  0  0  0  0  0  0  0  0  0
   32.7061  -19.4720   36.0671 C   0  0  0  0  0  0  0  0  0  0  0  0
   32.0464  -20.2662   35.1017 N   0  0  0  0  0  0  0  0  0  0  0  0
   32.2791  -19.7038   33.7615 C   0  0  0  0  0  0  0  0  0  0  0  0
   30.5966  -20.2095   35.3461 C   0  0  0  0  0  0  0  0  0  0  0  0
   32.4136  -21.6402   35.0560 C   0  0  0  0  0  0  0  0  0  0  0  0
  1  2  1  0  0  0
  2  3  1  0  0  0
  3  4  1  0  0  0
  4  5  1  0  0  0
  5  6  1  0  0  0
  6  8  1  0  0  0
  8  9  1  0  0  0
  9 10  1  0  0  0
  9 11  1  0  0  0
  9 12  1  0  0  0
  6  7  1  0  0  0
  7  2  1  0  0  0
M  CHG 1   9   1
M  END
> <minimizedAffinity>
-3.27988

> <CNNscore>
0.6884322762

> <CNNaffinity>
3.0262796879

> <CNN_VS>
2.0833885670

> <CNNaffinity_variance>
0.4092395306

$$$$
[H]C([H])([H])C1([H])OC([H])(C([H])([H])[N+](C([H])([H])[H])(C([H])([H])[H])C([H])([H])[H])C([H])([H])OC1([H])[H].[I-]


 12 12  0  0  0  0  0  0  0  0999 V2000
   37.0165  -17.6274   36.1206 C   0  0  0  0  0  0  0  0  0  0  0  0
   36.2554  -18.9506   35.9854 C   0  0  0  0  0  0  0  0  0  0  0  0
   36.5066  -19.7065   37.2788 C   0  0  0  0  0  0  0  0  0  0  0  0
   35.3692  -19.4627   38.0850 O   0  0  0  0  0  0  0  0  0  0  0  0
   34.3360  -20.2071   37.4818 C   0  0  0  0  0  0  0  0  0  0  0  0
   34.0703  -19.7141   36.0639 C   0  0  0  0  0  0  0  0  0  0  0  0
   34.9309  -18.6714   35.7703 O   0  0  0  0  0  0  0  0  0  0  0  0
   32.6485  -19.2586   36.0041 C   0  0  0  0  0  0  0  0  0  0  0  0
   31.7721  -20.0676   35.2456 N   0  0  0  0  0  0  0  0  0  0  0  0
   31.2394  -21.1449   36.0953 C   0  0  0  0  0  0  0  0  0  0  0  0
   32.5325  -20.7105   34.1623 C   0  0  0  0  0  0  0  0  0  0  0  0
   30.6615  -19.4083   34.6483 C   0  0  0  0  0  0  0  0  0  0  0  0
  1  2  1  0  0  0
  2  3  1  0  0  0
  3  4  1  0  0  0
  4  5  1  0  0  0
  5  6  1  0  0  0
  6  8  1  0  0  0
  8  9  1  0  0  0
  9 10  1  0  0  0
  9 11  1  0  0  0
  9 12  1  0  0  0
  6  7  1  0  0  0
  7  2  1  0  0  0
M  CHG 1   9   1
M  END
> <minimizedAffinity>
-3.10742

> <CNNscore>
0.6717631221

> <CNNaffinity>
2.9903604984

> <CNN_VS>
2.0088138580

> <CNNaffinity_variance>
0.3103778958

$$$$
[H]C([H])([H])C1([H])OC([H])(C([H])([H])[N+](C([H])([H])[H])(C([H])([H])[H])C([H])([H])[H])C([H])([H])OC1([H])[H].[I-]


 12 12  0  0  0  0  0  0  0  0999 V2000
   28.9620  -21.2823   35.6898 C   0  0  0  0  0  0  0  0  0  0  0  0
   30.3288  -21.0964   36.3574 C   0  0  0  0  0  0  0  0  0  0  0  0
   30.7902  -22.4893   36.7505 C   0  0  0  0  0  0  0  0  0  0  0  0
   31.6675  -22.9010   35.7191 O   0  0  0  0  0  0  0  0  0  0  0  0
   32.8275  -22.1224   35.9031 C   0  0  0  0  0  0  0  0  0  0  0  0
   32.5146  -20.6389   35.7437 C   0  0  0  0  0  0  0  0  0  0  0  0
   31.1685  -20.4795   35.4670 O   0  0  0  0  0  0  0  0  0  0  0  0
   33.3503  -20.1204   34.6188 C   0  0  0  0  0  0  0  0  0  0  0  0
   34.0591  -18.9249   34.8760 N   0  0  0  0  0  0  0  0  0  0  0  0
   35.1765  -18.8026   33.9257 C   0  0  0  0  0  0  0  0  0  0  0  0
   34.6464  -18.9979   36.2231 C   0  0  0  0  0  0  0  0  0  0  0  0
   33.3084  -17.7181   34.8074 C   0  0  0  0  0  0  0  0  0  0  0  0
  1  2  1  0  0  0
  2  3  1  0  0  0
  3  4  1  0  0  0
  4  5  1  0  0  0
  5  6  1  0  0  0
  6  8  1  0  0  0
  8  9  1  0  0  0
  9 10  1  0  0  0
  9 11  1  0  0  0
  9 12  1  0  0  0
  6  7  1  0  0  0
  7  2  1  0  0  0
M  CHG 1   9   1
M  END
> <minimizedAffinity>
-3.00420

> <CNNscore>
0.6704457402

> <CNNaffinity>
2.9405338764

> <CNN_VS>
1.9714684486

> <CNNaffinity_variance>
0.4202071130

$$$$
[H]C([H])([H])C1([H])OC([H])(C([H])([H])[N+](C([H])([H])[H])(C([H])([H])[H])C([H])([H])[H])C([H])([H])OC1([H])[H].[I-]


 12 12  0  0  0  0  0  0  0  0999 V2000
   34.9842  -12.6490   36.6492 C   0  0  0  0  0  0  0  0  0  0  0  0
   36.0202  -13.6941   36.2218 C   0  0  0  0  0  0  0  0  0  0  0  0
   36.9713  -13.8387   37.3973 C   0  0  0  0  0  0  0  0  0  0  0  0
   36.5276  -14.9824   38.1030 O   0  0  0  0  0  0  0  0  0  0  0  0
   36.8787  -16.0705   37.2793 C   0  0  0  0  0  0  0  0  0  0  0  0
   36.1588  -15.9885   35.9380 C   0  0  0  0  0  0  0  0  0  0  0  0
   35.3639  -14.8565   35.9107 O   0  0  0  0  0  0  0  0  0  0  0  0
   35.3271  -17.2217   35.7968 C   0  0  0  0  0  0  0  0  0  0  0  0
   35.8229  -18.2027   34.9082 N   0  0  0  0  0  0  0  0  0  0  0  0
   34.7391  -18.6535   34.0202 C   0  0  0  0  0  0  0  0  0  0  0  0
   36.2582  -19.3745   35.6845 C   0  0  0  0  0  0  0  0  0  0  0  0
   36.9148  -17.8136   34.0830 C   0  0  0  0  0  0  0  0  0  0  0  0
  1  2  1  0  0  0
  2  3  1  0  0  0
  3  4  1  0  0  0
  4  5  1  0  0  0
  5  6  1  0  0  0
  6  8  1  0  0  0
  8  9  1  0  0  0
  9 10  1  0  0  0
  9 11  1  0  0  0
  9 12  1  0  0  0
  6  7  1  0  0  0
  7  2  1  0  0  0
M  CHG 1   9   1
M  END
> <minimizedAffinity>
-4.31265

> <CNNscore>
0.6573044062

> <CNNaffinity>
3.3237457275

> <CNN_VS>
2.1847126484

> <CNNaffinity_variance>
0.6083393097

$$$$
[H]C([H])([H])C1([H])OC([H])(C([H])([H])[N+](C([H])([H])[H])(C([H])([H])[H])C([H])([H])[H])C([H])([H])OC1([H])[H].[I-]


 12 12  0  0  0  0  0  0  0  0999 V2000
   34.9028  -20.1856   40.7182 C   0  0  0  0  0  0  0  0  0  0  0  0
   35.1932  -20.6733   39.2948 C   0  0  0  0  0  0  0  0  0  0  0  0
   34.0571  -21.6177   38.9412 C   0  0  0  0  0  0  0  0  0  0  0  0
   33.1449  -20.8437   38.1849 O   0  0  0  0  0  0  0  0  0  0  0  0
   33.7852  -20.6446   36.9456 C   0  0  0  0  0  0  0  0  0  0  0  0
   35.0846  -19.8681   37.1260 C   0  0  0  0  0  0  0  0  0  0  0  0
   35.2681  -19.5833   38.4674 O   0  0  0  0  0  0  0  0  0  0  0  0
   34.9717  -18.6092   36.3291 C   0  0  0  0  0  0  0  0  0  0  0  0
   35.8943  -18.4651   35.2680 N   0  0  0  0  0  0  0  0  0  0  0  0
   36.4221  -17.0911   35.2597 C   0  0  0  0  0  0  0  0  0  0  0  0
   35.1894  -18.6628   33.9917 C   0  0  0  0  0  0  0  0  0  0  0  0
   37.0094  -19.3491   35.2759 C   0  0  0  0  0  0  0  0  0  0  0  0
  1  2  1  0  0  0
  2  3  1  0  0  0
  3  4  1  0  0  0
  4  5  1  0  0  0
  5  6  1  0  0  0
  6  8  1  0  0  0
  8  9  1  0  0  0
  9 10  1  0  0  0
  9 11  1  0  0  0
  9 12  1  0  0  0
  6  7  1  0  0  0
  7  2  1  0  0  0
M  CHG 1   9   1
M  END
> <minimizedAffinity>
-2.93572

> <CNNscore>
0.6514127851

> <CNNaffinity>
2.8212704659

> <CNN_VS>
1.8378117085

> <CNNaffinity_variance>
0.3056582808

$$$$
[H]Sc1nnc(N([H])C(=O)N([H])N=C([H])c2c([H])c([H])c([H])c(OC([H])([H])[H])c2[H])s1


 23 24  0  0  0  0  0  0  0  0999 V2000
   32.8380  -17.8022   34.5150 N   0  0  0  0  0  0  0  0  0  0  0  0
   32.1934  -18.9048   35.1182 C   0  0  0  0  0  0  0  0  0  0  0  0
   32.2133  -19.0325   36.3675 O   0  0  0  0  0  0  0  0  0  0  0  0
   31.5216  -19.8761   34.3507 N   0  0  0  0  0  0  0  0  0  0  0  0
   32.8094  -17.7146   33.4723 H   0  0  0  0  0  0  0  0  0  0  0  0
   31.4912  -19.7933   33.3223 H   0  0  0  0  0  0  0  0  0  0  0  0
   30.8690  -20.9923   34.9613 C   0  0  0  0  0  0  0  0  0  0  0  0
   31.2779  -22.2522   35.0822 N   0  0  0  0  0  0  0  0  0  0  0  0
   30.5478  -23.1037   35.6632 N   0  0  0  0  0  0  0  0  0  0  0  0
   29.3701  -22.7391   36.1537 C   0  0  0  0  0  0  0  0  0  0  0  0
   28.2255  -23.8148   36.9981 S   0  0  0  0  0  0  0  0  0  0  0  0
   29.3406  -21.0842   35.7433 S   0  0  0  0  0  0  0  0  0  0  0  0
   28.8940  -24.6650   37.9212 H   0  0  0  0  0  0  0  0  0  0  0  0
   34.7328  -16.9141   35.6000 C   0  0  0  0  0  0  0  0  0  0  0  0
   33.5119  -16.8180   35.2060 N   0  0  0  0  0  0  0  0  0  0  0  0
   35.4159  -13.5582   37.1172 C   0  0  0  0  0  0  0  0  0  0  0  0
   36.6366  -13.8069   37.7079 C   0  0  0  0  0  0  0  0  0  0  0  0
   37.2110  -15.0563   37.6015 C   0  0  0  0  0  0  0  0  0  0  0  0
   36.5947  -16.0793   36.9132 C   0  0  0  0  0  0  0  0  0  0  0  0
   35.3828  -15.8334   36.3265 C   0  0  0  0  0  0  0  0  0  0  0  0
   34.8129  -14.5873   36.4343 C   0  0  0  0  0  0  0  0  0  0  0  0
   33.4657  -12.1886   37.5795 C   0  0  0  0  0  0  0  0  0  0  0  0
   34.8160  -12.3225   37.2049 O   0  0  0  0  0  0  0  0  0  0  0  0
 22 23  1  0  0  0
 23 16  1  0  0  0
 16 17  2  0  0  0
 17 18  1  0  0  0
 18 19  2  0  0  0
 19 20  1  0  0  0
 20 14  1  0  0  0
 14 15  2  0  0  0
 15  1  1  0  0  0
  1  2  1  0  0  0
  2  3  2  0  0  0
  2  4  1  0  0  0
  4  7  1  0  0  0
  7  8  2  0  0  0
  8  9  1  0  0  0
  9 10  2  0  0  0
 10 11  1  0  0  0
 10 12  1  0  0  0
 20 21  2  0  0  0
 21 16  1  0  0  0
 12  7  1  0  0  0
  1  5  1  0  0  0
  4  6  1  0  0  0
 11 13  1  0  0  0
M  END
> <minimizedAffinity>
-6.36425

> <CNNscore>
0.5347439051

> <CNNaffinity>
4.3880605698

> <CNN_VS>
2.3464887142

> <CNNaffinity_variance>
0.5300797224

$$$$
[H]Sc1nnc(N([H])C(=O)N([H])N=C([H])c2c([H])c([H])c([H])c(OC([H])([H])[H])c2[H])s1


 23 24  0  0  0  0  0  0  0  0999 V2000
   38.0214  -18.6301   34.3352 N   0  0  0  0  0  0  0  0  0  0  0  0
   36.6700  -18.9588   34.5821 C   0  0  0  0  0  0  0  0  0  0  0  0
   36.3409  -19.4585   35.6864 O   0  0  0  0  0  0  0  0  0  0  0  0
   35.6698  -18.7401   33.6149 N   0  0  0  0  0  0  0  0  0  0  0  0
   38.2742  -18.2146   33.4084 H   0  0  0  0  0  0  0  0  0  0  0  0
   35.9151  -18.3307   32.6997 H   0  0  0  0  0  0  0  0  0  0  0  0
   34.3018  -19.0728   33.8648 C   0  0  0  0  0  0  0  0  0  0  0  0
   33.6432  -20.2006   33.6128 N   0  0  0  0  0  0  0  0  0  0  0  0
   32.4200  -20.3019   33.9117 N   0  0  0  0  0  0  0  0  0  0  0  0
   31.7917  -19.2798   34.4784 C   0  0  0  0  0  0  0  0  0  0  0  0
   30.0747  -19.2618   34.9596 S   0  0  0  0  0  0  0  0  0  0  0  0
   33.0492  -18.1318   34.5729 S   0  0  0  0  0  0  0  0  0  0  0  0
   29.6996  -20.4763   35.5970 H   0  0  0  0  0  0  0  0  0  0  0  0
   39.8732  -19.8039   35.2008 C   0  0  0  0  0  0  0  0  0  0  0  0
   39.0477  -18.8178   35.2362 N   0  0  0  0  0  0  0  0  0  0  0  0
   43.0003  -20.9385   36.9225 C   0  0  0  0  0  0  0  0  0  0  0  0
   42.9318  -20.1762   38.0694 C   0  0  0  0  0  0  0  0  0  0  0  0
   41.8740  -19.3118   38.2591 C   0  0  0  0  0  0  0  0  0  0  0  0
   40.8683  -19.1835   37.3252 C   0  0  0  0  0  0  0  0  0  0  0  0
   40.9354  -19.9398   36.1864 C   0  0  0  0  0  0  0  0  0  0  0  0
   41.9909  -20.8004   36.0001 C   0  0  0  0  0  0  0  0  0  0  0  0
   44.3236  -22.3067   35.4161 C   0  0  0  0  0  0  0  0  0  0  0  0
   44.0424  -21.8104   36.7030 O   0  0  0  0  0  0  0  0  0  0  0  0
 22 23  1  0  0  0
 23 16  1  0  0  0
 16 17  2  0  0  0
 17 18  1  0  0  0
 18 19  2  0  0  0
 19 20  1  0  0  0
 20 14  1  0  0  0
 14 15  2  0  0  0
 15  1  1  0  0  0
  1  2  1  0  0  0
  2  3  2  0  0  0
  2  4  1  0  0  0
  4  7  1  0  0  0
  7  8  2  0  0  0
  8  9  1  0  0  0
  9 10  2  0  0  0
 10 11  1  0  0  0
 10 12  1  0  0  0
 20 21  2  0  0  0
 21 16  1  0  0  0
 12  7  1  0  0  0
  1  5  1  0  0  0
  4  6  1  0  0  0
 11 13  1  0  0  0
M  END
> <minimizedAffinity>
-4.49294

> <CNNscore>
0.4458452761

> <CNNaffinity>
4.1256308556

> <CNN_VS>
1.8393930197

> <CNNaffinity_variance>
0.1330494732

$$$$
[H]Sc1nnc(N([H])C(=O)N([H])N=C([H])c2c([H])c([H])c([H])c(OC([H])([H])[H])c2[H])s1


 23 24  0  0  0  0  0  0  0  0999 V2000
   31.9608  -19.3839   34.3489 N   0  0  0  0  0  0  0  0  0  0  0  0
   32.6577  -18.4206   35.1116 C   0  0  0  0  0  0  0  0  0  0  0  0
   32.3254  -18.2094   36.3043 O   0  0  0  0  0  0  0  0  0  0  0  0
   33.7261  -17.6819   34.5672 N   0  0  0  0  0  0  0  0  0  0  0  0
   32.2538  -19.5444   33.3570 H   0  0  0  0  0  0  0  0  0  0  0  0
   34.0180  -17.8373   33.5895 H   0  0  0  0  0  0  0  0  0  0  0  0
   34.4316  -16.7068   35.3393 C   0  0  0  0  0  0  0  0  0  0  0  0
   34.0192  -15.5294   35.8006 N   0  0  0  0  0  0  0  0  0  0  0  0
   34.8024  -14.8010   36.4727 N   0  0  0  0  0  0  0  0  0  0  0  0
   36.0396  -15.2127   36.7185 C   0  0  0  0  0  0  0  0  0  0  0  0
   37.2636  -14.3075   37.6472 S   0  0  0  0  0  0  0  0  0  0  0  0
   36.0458  -16.7253   35.9309 S   0  0  0  0  0  0  0  0  0  0  0  0
   36.7040  -13.7254   38.8176 H   0  0  0  0  0  0  0  0  0  0  0  0
   31.0247  -21.3297   35.2944 C   0  0  0  0  0  0  0  0  0  0  0  0
   30.9083  -20.1398   34.8193 N   0  0  0  0  0  0  0  0  0  0  0  0
   28.6102  -24.1188   35.9437 C   0  0  0  0  0  0  0  0  0  0  0  0
   27.6689  -23.4496   36.6967 C   0  0  0  0  0  0  0  0  0  0  0  0
   27.8375  -22.1098   36.9772 C   0  0  0  0  0  0  0  0  0  0  0  0
   28.9331  -21.4079   36.5221 C   0  0  0  0  0  0  0  0  0  0  0  0
   29.8682  -22.0714   35.7745 C   0  0  0  0  0  0  0  0  0  0  0  0
   29.6974  -23.4067   35.4967 C   0  0  0  0  0  0  0  0  0  0  0  0
   27.7223  -25.8845   34.5343 C   0  0  0  0  0  0  0  0  0  0  0  0
   28.4714  -25.4555   35.6462 O   0  0  0  0  0  0  0  0  0  0  0  0
 22 23  1  0  0  0
 23 16  1  0  0  0
 16 17  2  0  0  0
 17 18  1  0  0  0
 18 19  2  0  0  0
 19 20  1  0  0  0
 20 14  1  0  0  0
 14 15  2  0  0  0
 15  1  1  0  0  0
  1  2  1  0  0  0
  2  3  2  0  0  0
  2  4  1  0  0  0
  4  7  1  0  0  0
  7  8  2  0  0  0
  8  9  1  0  0  0
  9 10  2  0  0  0
 10 11  1  0  0  0
 10 12  1  0  0  0
 20 21  2  0  0  0
 21 16  1  0  0  0
 12  7  1  0  0  0
  1  5  1  0  0  0
  4  6  1  0  0  0
 11 13  1  0  0  0
M  END
> <minimizedAffinity>
-4.86683

> <CNNscore>
0.4445545077

> <CNNaffinity>
4.2367882729

> <CNN_VS>
1.8834832907

> <CNNaffinity_variance>
0.2422442436

$$$$
[H]Sc1nnc(N([H])C(=O)N([H])N=C([H])c2c([H])c([H])c([H])c(OC([H])([H])[H])c2[H])s1


 23 24  0  0  0  0  0  0  0  0999 V2000
   38.2897  -19.2336   34.8056 N   0  0  0  0  0  0  0  0  0  0  0  0
   36.9019  -19.0330   34.9765 C   0  0  0  0  0  0  0  0  0  0  0  0
   36.4653  -18.5880   36.0670 O   0  0  0  0  0  0  0  0  0  0  0  0
   35.9835  -19.3207   33.9483 N   0  0  0  0  0  0  0  0  0  0  0  0
   38.6325  -19.6051   33.8891 H   0  0  0  0  0  0  0  0  0  0  0  0
   36.3176  -19.6873   33.0431 H   0  0  0  0  0  0  0  0  0  0  0  0
   34.5787  -19.1176   34.1214 C   0  0  0  0  0  0  0  0  0  0  0  0
   33.8682  -17.9957   34.0470 N   0  0  0  0  0  0  0  0  0  0  0  0
   32.6191  -18.0216   34.2339 N   0  0  0  0  0  0  0  0  0  0  0  0
   32.0155  -19.1717   34.5050 C   0  0  0  0  0  0  0  0  0  0  0  0
   30.2679  -19.3777   34.7933 S   0  0  0  0  0  0  0  0  0  0  0  0
   33.3366  -20.2499   34.4830 S   0  0  0  0  0  0  0  0  0  0  0  0
   29.4948  -18.6312   33.8622 H   0  0  0  0  0  0  0  0  0  0  0  0
   40.4737  -19.3310   35.6869 C   0  0  0  0  0  0  0  0  0  0  0  0
   39.2407  -18.9731   35.7689 N   0  0  0  0  0  0  0  0  0  0  0  0
   42.1448  -19.1928   39.0364 C   0  0  0  0  0  0  0  0  0  0  0  0
   43.2433  -18.4203   38.7238 C   0  0  0  0  0  0  0  0  0  0  0  0
   43.4179  -17.9616   37.4348 C   0  0  0  0  0  0  0  0  0  0  0  0
   42.5162  -18.2550   36.4344 C   0  0  0  0  0  0  0  0  0  0  0  0
   41.4253  -19.0217   36.7438 C   0  0  0  0  0  0  0  0  0  0  0  0
   41.2540  -19.4774   38.0292 C   0  0  0  0  0  0  0  0  0  0  0  0
   42.5583  -19.0621   41.4248 C   0  0  0  0  0  0  0  0  0  0  0  0
   41.9415  -19.6659   40.3128 O   0  0  0  0  0  0  0  0  0  0  0  0
 22 23  1  0  0  0
 23 16  1  0  0  0
 16 17  2  0  0  0
 17 18  1  0  0  0
 18 19  2  0  0  0
 19 20  1  0  0  0
 20 14  1  0  0  0
 14 15  2  0  0  0
 15  1  1  0  0  0
  1  2  1  0  0  0
  2  3  2  0  0  0
  2  4  1  0  0  0
  4  7  1  0  0  0
  7  8  2  0  0  0
  8  9  1  0  0  0
  9 10  2  0  0  0
 10 11  1  0  0  0
 10 12  1  0  0  0
 20 21  2  0  0  0
 21 16  1  0  0  0
 12  7  1  0  0  0
  1  5  1  0  0  0
  4  6  1  0  0  0
 11 13  1  0  0  0
M  END
> <minimizedAffinity>
-5.24394

> <CNNscore>
0.4205157459

> <CNNaffinity>
3.9542548656

> <CNN_VS>
1.6628264189

> <CNNaffinity_variance>
0.1988594979

$$$$
[H]Sc1nnc(N([H])C(=O)N([H])N=C([H])c2c([H])c([H])c([H])c(OC([H])([H])[H])c2[H])s1


 23 24  0  0  0  0  0  0  0  0999 V2000
   30.6148  -19.0174   35.0915 N   0  0  0  0  0  0  0  0  0  0  0  0
   30.2566  -20.3021   35.5569 C   0  0  0  0  0  0  0  0  0  0  0  0
   31.1481  -21.1631   35.7604 O   0  0  0  0  0  0  0  0  0  0  0  0
   28.9138  -20.6492   35.8019 N   0  0  0  0  0  0  0  0  0  0  0  0
   29.8565  -18.3147   34.9284 H   0  0  0  0  0  0  0  0  0  0  0  0
   28.1631  -19.9591   35.6423 H   0  0  0  0  0  0  0  0  0  0  0  0
   28.5513  -21.9497   36.2731 C   0  0  0  0  0  0  0  0  0  0  0  0
   28.4496  -23.0959   35.6061 N   0  0  0  0  0  0  0  0  0  0  0  0
   28.1105  -24.1532   36.2085 N   0  0  0  0  0  0  0  0  0  0  0  0
   27.8554  -24.1189   37.5102 C   0  0  0  0  0  0  0  0  0  0  0  0
   27.3674  -25.5169   38.5038 S   0  0  0  0  0  0  0  0  0  0  0  0
   28.1253  -22.4708   37.8552 S   0  0  0  0  0  0  0  0  0  0  0  0
   28.1343  -26.6724   38.1895 H   0  0  0  0  0  0  0  0  0  0  0  0
   32.8881  -18.7474   35.6534 C   0  0  0  0  0  0  0  0  0  0  0  0
   31.9069  -18.6132   34.8321 N   0  0  0  0  0  0  0  0  0  0  0  0
   36.1084  -16.8344   35.6785 C   0  0  0  0  0  0  0  0  0  0  0  0
   36.7696  -17.4658   34.6464 C   0  0  0  0  0  0  0  0  0  0  0  0
   36.1572  -18.4972   33.9655 C   0  0  0  0  0  0  0  0  0  0  0  0
   34.8867  -18.9232   34.2886 C   0  0  0  0  0  0  0  0  0  0  0  0
   34.2295  -18.2970   35.3130 C   0  0  0  0  0  0  0  0  0  0  0  0
   34.8424  -17.2695   35.9897 C   0  0  0  0  0  0  0  0  0  0  0  0
   36.3399  -14.4612   36.1330 C   0  0  0  0  0  0  0  0  0  0  0  0
   36.6915  -15.8021   36.3776 O   0  0  0  0  0  0  0  0  0  0  0  0
 22 23  1  0  0  0
 23 16  1  0  0  0
 16 17  2  0  0  0
 17 18  1  0  0  0
 18 19  2  0  0  0
 19 20  1  0  0  0
 20 14  1  0  0  0
 14 15  2  0  0  0
 15  1  1  0  0  0
  1  2  1  0  0  0
  2  3  2  0  0  0
  2  4  1  0  0  0
  4  7  1  0  0  0
  7  8  2  0  0  0
  8  9  1  0  0  0
  9 10  2  0  0  0
 10 11  1  0  0  0
 10 12  1  0  0  0
 20 21  2  0  0  0
 21 16  1  0  0  0
 12  7  1  0  0  0
  1  5  1  0  0  0
  4  6  1  0  0  0
 11 13  1  0  0  0
M  END
> <minimizedAffinity>
-5.07318

> <CNNscore>
0.3963080347

> <CNNaffinity>
4.0791211128

> <CNN_VS>
1.6165884733

> <CNNaffinity_variance>
0.3498379290

$$$$
[H]Sc1nnc(N([H])C(=O)N([H])N=C([H])c2c([H])c([H])c([H])c(OC([H])([H])[H])c2[H])s1


 23 24  0  0  0  0  0  0  0  0999 V2000
   33.7291  -18.6541   34.3471 N   0  0  0  0  0  0  0  0  0  0  0  0
   33.1006  -19.7400   34.9960 C   0  0  0  0  0  0  0  0  0  0  0  0
   32.5944  -19.5787   36.1342 O   0  0  0  0  0  0  0  0  0  0  0  0
   33.0245  -21.0125   34.3972 N   0  0  0  0  0  0  0  0  0  0  0  0
   34.1445  -18.8100   33.3991 H   0  0  0  0  0  0  0  0  0  0  0  0
   33.4329  -21.1702   33.4625 H   0  0  0  0  0  0  0  0  0  0  0  0
   32.3882  -22.1117   35.0541 C   0  0  0  0  0  0  0  0  0  0  0  0
   31.2052  -22.6718   34.8179 N   0  0  0  0  0  0  0  0  0  0  0  0
   30.8140  -23.6482   35.5174 N   0  0  0  0  0  0  0  0  0  0  0  0
   31.5862  -24.1154   36.4900 C   0  0  0  0  0  0  0  0  0  0  0  0
   31.1822  -25.4810   37.5633 S   0  0  0  0  0  0  0  0  0  0  0  0
   32.9342  -23.0782   36.3670 S   0  0  0  0  0  0  0  0  0  0  0  0
   30.6073  -26.5608   36.8384 H   0  0  0  0  0  0  0  0  0  0  0  0
   34.7774  -17.0090   35.6704 C   0  0  0  0  0  0  0  0  0  0  0  0
   33.8383  -17.3857   34.8758 N   0  0  0  0  0  0  0  0  0  0  0  0
   35.9905  -13.9004   37.3720 C   0  0  0  0  0  0  0  0  0  0  0  0
   34.9041  -13.0764   37.1674 C   0  0  0  0  0  0  0  0  0  0  0  0
   33.8029  -13.5464   36.4828 C   0  0  0  0  0  0  0  0  0  0  0  0
   33.7529  -14.8325   35.9892 C   0  0  0  0  0  0  0  0  0  0  0  0
   34.8309  -15.6513   36.1918 C   0  0  0  0  0  0  0  0  0  0  0  0
   35.9269  -15.1800   36.8745 C   0  0  0  0  0  0  0  0  0  0  0  0
   38.3600  -13.3753   37.4205 C   0  0  0  0  0  0  0  0  0  0  0  0
   37.1044  -13.4618   38.0512 O   0  0  0  0  0  0  0  0  0  0  0  0
 22 23  1  0  0  0
 23 16  1  0  0  0
 16 17  2  0  0  0
 17 18  1  0  0  0
 18 19  2  0  0  0
 19 20  1  0  0  0
 20 14  1  0  0  0
 14 15  2  0  0  0
 15  1  1  0  0  0
  1  2  1  0  0  0
  2  3  2  0  0  0
  2  4  1  0  0  0
  4  7  1  0  0  0
  7  8  2  0  0  0
  8  9  1  0  0  0
  9 10  2  0  0  0
 10 11  1  0  0  0
 10 12  1  0  0  0
 20 21  2  0  0  0
 21 16  1  0  0  0
 12  7  1  0  0  0
  1  5  1  0  0  0
  4  6  1  0  0  0
 11 13  1  0  0  0
M  END
> <minimizedAffinity>
-5.86701

> <CNNscore>
0.3675257862

> <CNNaffinity>
4.0933613777

> <CNN_VS>
1.5044158697

> <CNNaffinity_variance>
0.2112996876

$$$$
[H]Sc1nnc(N([H])C(=O)N([H])N=C([H])c2c([H])c([H])c([H])c(OC([H])([H])[H])c2[H])s1


 23 24  0  0  0  0  0  0  0  0999 V2000
   35.6539  -20.1575   36.9189 N   0  0  0  0  0  0  0  0  0  0  0  0
   36.8255  -20.9445   36.8623 C   0  0  0  0  0  0  0  0  0  0  0  0
   37.9493  -20.4020   37.0047 O   0  0  0  0  0  0  0  0  0  0  0  0
   36.7693  -22.3355   36.6482 N   0  0  0  0  0  0  0  0  0  0  0  0
   34.7276  -20.6294   36.7978 H   0  0  0  0  0  0  0  0  0  0  0  0
   35.8577  -22.8045   36.5283 H   0  0  0  0  0  0  0  0  0  0  0  0
   37.9553  -23.1322   36.5909 C   0  0  0  0  0  0  0  0  0  0  0  0
   38.5796  -23.7952   37.5603 N   0  0  0  0  0  0  0  0  0  0  0  0
   39.6293  -24.4508   37.3069 N   0  0  0  0  0  0  0  0  0  0  0  0
   40.1092  -24.4773   36.0702 C   0  0  0  0  0  0  0  0  0  0  0  0
   41.5738  -25.3513   35.5496 S   0  0  0  0  0  0  0  0  0  0  0  0
   38.9726  -23.5017   35.2551 S   0  0  0  0  0  0  0  0  0  0  0  0
   41.6360  -26.6512   36.1225 H   0  0  0  0  0  0  0  0  0  0  0  0
   35.3764  -17.9257   36.2127 C   0  0  0  0  0  0  0  0  0  0  0  0
   35.6382  -18.7945   37.1248 N   0  0  0  0  0  0  0  0  0  0  0  0
   36.4226  -14.5528   37.4616 C   0  0  0  0  0  0  0  0  0  0  0  0
   35.3525  -13.7966   37.0326 C   0  0  0  0  0  0  0  0  0  0  0  0
   34.3160  -14.3964   36.3484 C   0  0  0  0  0  0  0  0  0  0  0  0
   34.3157  -15.7476   36.0756 C   0  0  0  0  0  0  0  0  0  0  0  0
   35.3775  -16.4992   36.5011 C   0  0  0  0  0  0  0  0  0  0  0  0
   36.4090  -15.8986   37.1827 C   0  0  0  0  0  0  0  0  0  0  0  0
   38.4490  -13.2166   37.4851 C   0  0  0  0  0  0  0  0  0  0  0  0
   37.4724  -13.9847   38.1468 O   0  0  0  0  0  0  0  0  0  0  0  0
 22 23  1  0  0  0
 23 16  1  0  0  0
 16 17  2  0  0  0
 17 18  1  0  0  0
 18 19  2  0  0  0
 19 20  1  0  0  0
 20 14  1  0  0  0
 14 15  2  0  0  0
 15  1  1  0  0  0
  1  2  1  0  0  0
  2  3  2  0  0  0
  2  4  1  0  0  0
  4  7  1  0  0  0
  7  8  2  0  0  0
  8  9  1  0  0  0
  9 10  2  0  0  0
 10 11  1  0  0  0
 10 12  1  0  0  0
 20 21  2  0  0  0
 21 16  1  0  0  0
 12  7  1  0  0  0
  1  5  1  0  0  0
  4  6  1  0  0  0
 11 13  1  0  0  0
M  END
> <minimizedAffinity>
-4.77968

> <CNNscore>
0.3564150333

> <CNNaffinity>
3.9831092358

> <CNN_VS>
1.4196400642

> <CNNaffinity_variance>
0.1374213845

$$$$
[H]Sc1nnc(N([H])C(=O)N([H])N=C([H])c2c([H])c([H])c([H])c(OC([H])([H])[H])c2[H])s1


 23 24  0  0  0  0  0  0  0  0999 V2000
   31.8838  -17.5394   34.7964 N   0  0  0  0  0  0  0  0  0  0  0  0
   31.4397  -18.7702   35.3285 C   0  0  0  0  0  0  0  0  0  0  0  0
   32.0845  -19.3177   36.2570 O   0  0  0  0  0  0  0  0  0  0  0  0
   30.2820  -19.4084   34.8426 N   0  0  0  0  0  0  0  0  0  0  0  0
   31.3319  -17.1001   34.0232 H   0  0  0  0  0  0  0  0  0  0  0  0
   29.7350  -18.9784   34.0801 H   0  0  0  0  0  0  0  0  0  0  0  0
   29.8324  -20.6543   35.3813 C   0  0  0  0  0  0  0  0  0  0  0  0
   28.6562  -21.2608   35.2490 N   0  0  0  0  0  0  0  0  0  0  0  0
   28.4488  -22.3734   35.8102 N   0  0  0  0  0  0  0  0  0  0  0  0
   29.4077  -22.9374   36.5333 C   0  0  0  0  0  0  0  0  0  0  0  0
   29.2755  -24.4981   37.3858 S   0  0  0  0  0  0  0  0  0  0  0  0
   30.6565  -21.7864   36.3789 S   0  0  0  0  0  0  0  0  0  0  0  0
   28.6340  -25.4788   36.5805 H   0  0  0  0  0  0  0  0  0  0  0  0
   33.0955  -15.5819   35.3026 C   0  0  0  0  0  0  0  0  0  0  0  0
   33.0058  -16.8629   35.2250 N   0  0  0  0  0  0  0  0  0  0  0  0
   35.5561  -12.9409   36.3033 C   0  0  0  0  0  0  0  0  0  0  0  0
   36.6321  -13.7331   36.6431 C   0  0  0  0  0  0  0  0  0  0  0  0
   36.5364  -15.1052   36.5404 C   0  0  0  0  0  0  0  0  0  0  0  0
   35.3824  -15.7188   36.1025 C   0  0  0  0  0  0  0  0  0  0  0  0
   34.3136  -14.9332   35.7649 C   0  0  0  0  0  0  0  0  0  0  0  0
   34.4120  -13.5661   35.8683 C   0  0  0  0  0  0  0  0  0  0  0  0
   34.6389  -10.8349   37.0882 C   0  0  0  0  0  0  0  0  0  0  0  0
   35.6194  -11.5690   36.3945 O   0  0  0  0  0  0  0  0  0  0  0  0
 22 23  1  0  0  0
 23 16  1  0  0  0
 16 17  2  0  0  0
 17 18  1  0  0  0
 18 19  2  0  0  0
 19 20  1  0  0  0
 20 14  1  0  0  0
 14 15  2  0  0  0
 15  1  1  0  0  0
  1  2  1  0  0  0
  2  3  2  0  0  0
  2  4  1  0  0  0
  4  7  1  0  0  0
  7  8  2  0  0  0
  8  9  1  0  0  0
  9 10  2  0  0  0
 10 11  1  0  0  0
 10 12  1  0  0  0
 20 21  2  0  0  0
 21 16  1  0  0  0
 12  7  1  0  0  0
  1  5  1  0  0  0
  4  6  1  0  0  0
 11 13  1  0  0  0
M  END
> <minimizedAffinity>
-2.75208

> <CNNscore>
0.3464722931

> <CNNaffinity>
4.3195662498

> <CNN_VS>
1.4966100454

> <CNNaffinity_variance>
0.1992465556

$$$$
[H]Sc1nnc(N([H])C(=O)N([H])N=C([H])c2c([H])c([H])c([H])c(OC([H])([H])[H])c2[H])s1


 23 24  0  0  0  0  0  0  0  0999 V2000
   39.8912  -18.5275   35.0770 N   0  0  0  0  0  0  0  0  0  0  0  0
   38.5001  -18.5630   35.3193 C   0  0  0  0  0  0  0  0  0  0  0  0
   38.0602  -19.1331   36.3484 O   0  0  0  0  0  0  0  0  0  0  0  0
   37.5818  -17.9712   34.4303 N   0  0  0  0  0  0  0  0  0  0  0  0
   40.2368  -18.0473   34.2136 H   0  0  0  0  0  0  0  0  0  0  0  0
   37.9186  -17.4969   33.5777 H   0  0  0  0  0  0  0  0  0  0  0  0
   36.1736  -18.0072   34.6756 C   0  0  0  0  0  0  0  0  0  0  0  0
   35.4212  -17.2020   35.4204 N   0  0  0  0  0  0  0  0  0  0  0  0
   34.1772  -17.4010   35.5128 N   0  0  0  0  0  0  0  0  0  0  0  0
   33.6207  -18.4164   34.8647 C   0  0  0  0  0  0  0  0  0  0  0  0
   31.8868  -18.8318   34.8906 S   0  0  0  0  0  0  0  0  0  0  0  0
   34.9799  -19.0992   34.0936 S   0  0  0  0  0  0  0  0  0  0  0  0
   31.0716  -17.6731   34.7694 H   0  0  0  0  0  0  0  0  0  0  0  0
   41.5377  -18.4237   36.7606 C   0  0  0  0  0  0  0  0  0  0  0  0
   40.8423  -19.0856   35.9042 N   0  0  0  0  0  0  0  0  0  0  0  0
   43.2822  -19.8148   39.7694 C   0  0  0  0  0  0  0  0  0  0  0  0
   44.4164  -20.3244   39.1738 C   0  0  0  0  0  0  0  0  0  0  0  0
   44.5905  -20.2060   37.8107 C   0  0  0  0  0  0  0  0  0  0  0  0
   43.6532  -19.5853   37.0131 C   0  0  0  0  0  0  0  0  0  0  0  0
   42.5269  -19.0790   37.6035 C   0  0  0  0  0  0  0  0  0  0  0  0
   42.3561  -19.1986   38.9621 C   0  0  0  0  0  0  0  0  0  0  0  0
   42.1167  -19.1264   41.7844 C   0  0  0  0  0  0  0  0  0  0  0  0
   43.0784  -19.9165   41.1268 O   0  0  0  0  0  0  0  0  0  0  0  0
 22 23  1  0  0  0
 23 16  1  0  0  0
 16 17  2  0  0  0
 17 18  1  0  0  0
 18 19  2  0  0  0
 19 20  1  0  0  0
 20 14  1  0  0  0
 14 15  2  0  0  0
 15  1  1  0  0  0
  1  2  1  0  0  0
  2  3  2  0  0  0
  2  4  1  0  0  0
  4  7  1  0  0  0
  7  8  2  0  0  0
  8  9  1  0  0  0
  9 10  2  0  0  0
 10 11  1  0  0  0
 10 12  1  0  0  0
 20 21  2  0  0  0
 21 16  1  0  0  0
 12  7  1  0  0  0
  1  5  1  0  0  0
  4  6  1  0  0  0
 11 13  1  0  0  0
M  END
> <minimizedAffinity>
-4.43188

> <CNNscore>
0.3383061588

> <CNNaffinity>
3.9244582653

> <CNN_VS>
1.3276684284

> <CNNaffinity_variance>
0.0887133330

$$$$
[H]c1c([H])c(-c2c([H])c(SC([H])([H])[H])n([H])c2-c2c([H])c([H])c(S(=O)(=O)C([H])([H])[H])c([H])c2[H])c([H])c([H])c1F


 25 27  0  0  0  0  0  0  0  0999 V2000
   38.1820  -18.8445   35.4900 C   0  0  0  0  0  0  0  0  0  0  0  0
   36.9738  -19.5031   35.2164 C   0  0  0  0  0  0  0  0  0  0  0  0
   35.9394  -18.6524   35.5179 C   0  0  0  0  0  0  0  0  0  0  0  0
   36.5066  -17.4906   35.9693 C   0  0  0  0  0  0  0  0  0  0  0  0
   37.8520  -17.6255   35.9450 N   0  0  0  0  0  0  0  0  0  0  0  0
   38.5523  -16.9145   36.2280 H   0  0  0  0  0  0  0  0  0  0  0  0
   34.5205  -18.9292   35.3839 C   0  0  0  0  0  0  0  0  0  0  0  0
   33.8492  -18.6123   34.2208 C   0  0  0  0  0  0  0  0  0  0  0  0
   32.5252  -18.8512   34.0555 C   0  0  0  0  0  0  0  0  0  0  0  0
   31.7997  -19.4294   35.0666 C   0  0  0  0  0  0  0  0  0  0  0  0
   30.4905  -19.6457   34.8558 F   0  0  0  0  0  0  0  0  0  0  0  0
   32.4473  -19.7595   36.2486 C   0  0  0  0  0  0  0  0  0  0  0  0
   33.7881  -19.5121   36.4026 C   0  0  0  0  0  0  0  0  0  0  0  0
   35.7600  -16.3250   36.4010 C   0  0  0  0  0  0  0  0  0  0  0  0
   36.2783  -15.5090   37.4122 C   0  0  0  0  0  0  0  0  0  0  0  0
   35.5147  -14.4177   37.7664 C   0  0  0  0  0  0  0  0  0  0  0  0
   34.3079  -14.1033   37.1924 C   0  0  0  0  0  0  0  0  0  0  0  0
   33.8056  -14.9152   36.1959 C   0  0  0  0  0  0  0  0  0  0  0  0
   34.5361  -16.0017   35.8228 C   0  0  0  0  0  0  0  0  0  0  0  0
   33.3706  -12.7104   37.6628 S   0  0  0  0  0  0  0  0  0  0  0  0
   31.9794  -12.5696   36.5570 C   0  0  0  0  0  0  0  0  0  0  0  0
   34.2242  -11.4698   37.4974 O   0  0  0  0  0  0  0  0  0  0  0  0
   32.9667  -12.7797   39.0920 O   0  0  0  0  0  0  0  0  0  0  0  0
   40.6527  -18.8210   33.8136 C   0  0  0  0  0  0  0  0  0  0  0  0
   39.8401  -19.4515   35.2975 S   0  0  0  0  0  0  0  0  0  0  0  0
 24 25  1  0  0  0
 25  1  1  0  0  0
  1  2  2  0  0  0
  2  3  1  0  0  0
  3  7  1  0  0  0
  7  8  2  0  0  0
  8  9  1  0  0  0
  9 10  2  0  0  0
 10 11  1  0  0  0
 10 12  1  0  0  0
 12 13  2  0  0  0
  3  4  2  0  0  0
  4 14  1  0  0  0
 14 15  2  0  0  0
 15 16  1  0  0  0
 16 17  2  0  0  0
 17 20  1  0  0  0
 20 21  1  0  0  0
 20 22  2  0  0  0
 20 23  2  0  0  0
 17 18  1  0  0  0
 18 19  2  0  0  0
  4  5  1  0  0  0
  5  1  1  0  0  0
 13  7  1  0  0  0
 19 14  1  0  0  0
  5  6  1  0  0  0
M  END
> <minimizedAffinity>
-7.46795

> <CNNscore>
0.6242359877

> <CNNaffinity>
5.4068269730

> <CNN_VS>
3.3751358986

> <CNNaffinity_variance>
0.3111161888

$$$$
[H]c1c([H])c(-c2c([H])c(SC([H])([H])[H])n([H])c2-c2c([H])c([H])c(S(=O)(=O)C([H])([H])[H])c([H])c2[H])c([H])c([H])c1F


 25 27  0  0  0  0  0  0  0  0999 V2000
   38.1717  -18.8912   35.1431 C   0  0  0  0  0  0  0  0  0  0  0  0
   36.9686  -19.5898   34.9627 C   0  0  0  0  0  0  0  0  0  0  0  0
   35.9306  -18.7606   35.3087 C   0  0  0  0  0  0  0  0  0  0  0  0
   36.4908  -17.5723   35.6952 C   0  0  0  0  0  0  0  0  0  0  0  0
   37.8354  -17.6705   35.5887 N   0  0  0  0  0  0  0  0  0  0  0  0
   38.5311  -16.9333   35.8095 H   0  0  0  0  0  0  0  0  0  0  0  0
   34.5149  -19.0800   35.2718 C   0  0  0  0  0  0  0  0  0  0  0  0
   33.8808  -19.5935   36.3845 C   0  0  0  0  0  0  0  0  0  0  0  0
   32.5622  -19.9075   36.3917 C   0  0  0  0  0  0  0  0  0  0  0  0
   31.8044  -19.7178   35.2636 C   0  0  0  0  0  0  0  0  0  0  0  0
   30.5023  -20.0445   35.3195 F   0  0  0  0  0  0  0  0  0  0  0  0
   32.4141  -19.2026   34.1286 C   0  0  0  0  0  0  0  0  0  0  0  0
   33.7499  -18.8890   34.1351 C   0  0  0  0  0  0  0  0  0  0  0  0
   35.7391  -16.4170   36.1452 C   0  0  0  0  0  0  0  0  0  0  0  0
   36.2496  -15.6197   37.1751 C   0  0  0  0  0  0  0  0  0  0  0  0
   35.4814  -14.5373   37.5462 C   0  0  0  0  0  0  0  0  0  0  0  0
   34.2772  -14.2145   36.9715 C   0  0  0  0  0  0  0  0  0  0  0  0
   33.7825  -15.0079   35.9564 C   0  0  0  0  0  0  0  0  0  0  0  0
   34.5177  -16.0852   35.5664 C   0  0  0  0  0  0  0  0  0  0  0  0
   33.3339  -12.8331   37.4635 S   0  0  0  0  0  0  0  0  0  0  0  0
   34.3200  -11.3667   37.2288 C   0  0  0  0  0  0  0  0  0  0  0  0
   33.0253  -12.9550   38.9417 O   0  0  0  0  0  0  0  0  0  0  0  0
   32.0333  -12.7748   36.7455 O   0  0  0  0  0  0  0  0  0  0  0  0
   40.6931  -18.5048   33.5911 C   0  0  0  0  0  0  0  0  0  0  0  0
   39.8316  -19.4569   34.8604 S   0  0  0  0  0  0  0  0  0  0  0  0
 24 25  1  0  0  0
 25  1  1  0  0  0
  1  2  2  0  0  0
  2  3  1  0  0  0
  3  7  1  0  0  0
  7  8  2  0  0  0
  8  9  1  0  0  0
  9 10  2  0  0  0
 10 11  1  0  0  0
 10 12  1  0  0  0
 12 13  2  0  0  0
  3  4  2  0  0  0
  4 14  1  0  0  0
 14 15  2  0  0  0
 15 16  1  0  0  0
 16 17  2  0  0  0
 17 20  1  0  0  0
 20 21  1  0  0  0
 20 22  2  0  0  0
 20 23  2  0  0  0
 17 18  1  0  0  0
 18 19  2  0  0  0
  4  5  1  0  0  0
  5  1  1  0  0  0
 13  7  1  0  0  0
 19 14  1  0  0  0
  5  6  1  0  0  0
M  END
> <minimizedAffinity>
-7.32746

> <CNNscore>
0.6112154126

> <CNNaffinity>
5.4080386162

> <CNN_VS>
3.3054766655

> <CNNaffinity_variance>
0.3136698008

$$$$
[H]c1c([H])c(-c2c([H])c(SC([H])([H])[H])n([H])c2-c2c([H])c([H])c(S(=O)(=O)C([H])([H])[H])c([H])c2[H])c([H])c([H])c1F


 25 27  0  0  0  0  0  0  0  0999 V2000
   36.1024  -15.3463   36.5348 C   0  0  0  0  0  0  0  0  0  0  0  0
   34.9242  -16.0584   36.2648 C   0  0  0  0  0  0  0  0  0  0  0  0
   35.2642  -17.3430   35.9204 C   0  0  0  0  0  0  0  0  0  0  0  0
   36.6305  -17.4155   35.9788 C   0  0  0  0  0  0  0  0  0  0  0  0
   37.1145  -16.2082   36.3491 N   0  0  0  0  0  0  0  0  0  0  0  0
   38.1114  -15.9526   36.4795 H   0  0  0  0  0  0  0  0  0  0  0  0
   34.3538  -18.4163   35.5643 C   0  0  0  0  0  0  0  0  0  0  0  0
   33.8777  -18.5355   34.2747 C   0  0  0  0  0  0  0  0  0  0  0  0
   33.0246  -19.5204   33.9010 C   0  0  0  0  0  0  0  0  0  0  0  0
   32.6019  -20.4484   34.8192 C   0  0  0  0  0  0  0  0  0  0  0  0
   31.7561  -21.4051   34.4013 F   0  0  0  0  0  0  0  0  0  0  0  0
   33.0637  -20.3547   36.1243 C   0  0  0  0  0  0  0  0  0  0  0  0
   33.9270  -19.3525   36.4891 C   0  0  0  0  0  0  0  0  0  0  0  0
   37.4039  -18.6053   35.6814 C   0  0  0  0  0  0  0  0  0  0  0  0
   37.9077  -19.3813   36.7307 C   0  0  0  0  0  0  0  0  0  0  0  0
   38.6294  -20.4989   36.3707 C   0  0  0  0  0  0  0  0  0  0  0  0
   38.8700  -20.8748   35.0725 C   0  0  0  0  0  0  0  0  0  0  0  0
   38.3688  -20.1020   34.0448 C   0  0  0  0  0  0  0  0  0  0  0  0
   37.6511  -18.9911   34.3672 C   0  0  0  0  0  0  0  0  0  0  0  0
   39.7841  -22.2994   34.6538 S   0  0  0  0  0  0  0  0  0  0  0  0
   40.6780  -22.8385   36.0989 C   0  0  0  0  0  0  0  0  0  0  0  0
   40.7976  -21.9329   33.5892 O   0  0  0  0  0  0  0  0  0  0  0  0
   38.9126  -23.3613   34.0851 O   0  0  0  0  0  0  0  0  0  0  0  0
   37.9859  -13.2021   37.4124 C   0  0  0  0  0  0  0  0  0  0  0  0
   36.2803  -13.6476   37.0224 S   0  0  0  0  0  0  0  0  0  0  0  0
 24 25  1  0  0  0
 25  1  1  0  0  0
  1  2  2  0  0  0
  2  3  1  0  0  0
  3  7  1  0  0  0
  7  8  2  0  0  0
  8  9  1  0  0  0
  9 10  2  0  0  0
 10 11  1  0  0  0
 10 12  1  0  0  0
 12 13  2  0  0  0
  3  4  2  0  0  0
  4 14  1  0  0  0
 14 15  2  0  0  0
 15 16  1  0  0  0
 16 17  2  0  0  0
 17 20  1  0  0  0
 20 21  1  0  0  0
 20 22  2  0  0  0
 20 23  2  0  0  0
 17 18  1  0  0  0
 18 19  2  0  0  0
  4  5  1  0  0  0
  5  1  1  0  0  0
 13  7  1  0  0  0
 19 14  1  0  0  0
  5  6  1  0  0  0
M  END
> <minimizedAffinity>
-6.17339

> <CNNscore>
0.5996372104

> <CNNaffinity>
5.1584463120

> <CNN_VS>
3.0931963921

> <CNNaffinity_variance>
0.2166372240

$$$$
[H]c1c([H])c(-c2c([H])c(SC([H])([H])[H])n([H])c2-c2c([H])c([H])c(S(=O)(=O)C([H])([H])[H])c([H])c2[H])c([H])c([H])c1F


 25 27  0  0  0  0  0  0  0  0999 V2000
   32.4120  -16.0037   34.0872 C   0  0  0  0  0  0  0  0  0  0  0  0
   32.9052  -17.2949   34.3273 C   0  0  0  0  0  0  0  0  0  0  0  0
   34.0518  -17.1881   35.0748 C   0  0  0  0  0  0  0  0  0  0  0  0
   34.2568  -15.8511   35.2885 C   0  0  0  0  0  0  0  0  0  0  0  0
   33.2629  -15.1575   34.6886 N   0  0  0  0  0  0  0  0  0  0  0  0
   33.1453  -14.1269   34.6757 H   0  0  0  0  0  0  0  0  0  0  0  0
   34.8847  -18.2792   35.5475 C   0  0  0  0  0  0  0  0  0  0  0  0
   36.1850  -18.4133   35.1058 C   0  0  0  0  0  0  0  0  0  0  0  0
   36.9952  -19.4181   35.5198 C   0  0  0  0  0  0  0  0  0  0  0  0
   36.5312  -20.3518   36.4118 C   0  0  0  0  0  0  0  0  0  0  0  0
   37.3712  -21.3292   36.7918 F   0  0  0  0  0  0  0  0  0  0  0  0
   35.2274  -20.2433   36.8741 C   0  0  0  0  0  0  0  0  0  0  0  0
   34.4180  -19.2211   36.4469 C   0  0  0  0  0  0  0  0  0  0  0  0
   35.3701  -15.2995   36.0358 C   0  0  0  0  0  0  0  0  0  0  0  0
   35.7281  -15.8694   37.2623 C   0  0  0  0  0  0  0  0  0  0  0  0
   36.7984  -15.2940   37.9127 C   0  0  0  0  0  0  0  0  0  0  0  0
   37.5072  -14.2222   37.4297 C   0  0  0  0  0  0  0  0  0  0  0  0
   37.1455  -13.6673   36.2190 C   0  0  0  0  0  0  0  0  0  0  0  0
   36.0921  -14.2129   35.5512 C   0  0  0  0  0  0  0  0  0  0  0  0
   38.8603  -13.5227   38.2783 S   0  0  0  0  0  0  0  0  0  0  0  0
   40.3432  -14.3697   37.7670 C   0  0  0  0  0  0  0  0  0  0  0  0
   38.6785  -13.7578   39.7638 O   0  0  0  0  0  0  0  0  0  0  0  0
   38.9353  -12.0523   38.0712 O   0  0  0  0  0  0  0  0  0  0  0  0
   31.2342  -14.0728   32.1378 C   0  0  0  0  0  0  0  0  0  0  0  0
   30.9643  -15.5250   33.1761 S   0  0  0  0  0  0  0  0  0  0  0  0
 24 25  1  0  0  0
 25  1  1  0  0  0
  1  2  2  0  0  0
  2  3  1  0  0  0
  3  7  1  0  0  0
  7  8  2  0  0  0
  8  9  1  0  0  0
  9 10  2  0  0  0
 10 11  1  0  0  0
 10 12  1  0  0  0
 12 13  2  0  0  0
  3  4  2  0  0  0
  4 14  1  0  0  0
 14 15  2  0  0  0
 15 16  1  0  0  0
 16 17  2  0  0  0
 17 20  1  0  0  0
 20 21  1  0  0  0
 20 22  2  0  0  0
 20 23  2  0  0  0
 17 18  1  0  0  0
 18 19  2  0  0  0
  4  5  1  0  0  0
  5  1  1  0  0  0
 13  7  1  0  0  0
 19 14  1  0  0  0
  5  6  1  0  0  0
M  END
> <minimizedAffinity>
18.15043

> <CNNscore>
0.4516562521

> <CNNaffinity>
4.9011549950

> <CNN_VS>
2.2136373520

> <CNNaffinity_variance>
0.3229997754

$$$$
[H]c1c([H])c(-c2c([H])c(SC([H])([H])[H])n([H])c2-c2c([H])c([H])c(S(=O)(=O)C([H])([H])[H])c([H])c2[H])c([H])c([H])c1F


 25 27  0  0  0  0  0  0  0  0999 V2000
   33.3678  -19.0609   34.5034 C   0  0  0  0  0  0  0  0  0  0  0  0
   33.5356  -17.8557   35.2018 C   0  0  0  0  0  0  0  0  0  0  0  0
   34.8807  -17.6267   35.3526 C   0  0  0  0  0  0  0  0  0  0  0  0
   35.5261  -18.6764   34.7553 C   0  0  0  0  0  0  0  0  0  0  0  0
   34.6017  -19.5255   34.2519 N   0  0  0  0  0  0  0  0  0  0  0  0
   34.7840  -20.4108   33.7428 H   0  0  0  0  0  0  0  0  0  0  0  0
   35.4994  -16.4928   36.0153 C   0  0  0  0  0  0  0  0  0  0  0  0
   35.3976  -15.2248   35.4807 C   0  0  0  0  0  0  0  0  0  0  0  0
   35.9621  -14.1400   36.0655 C   0  0  0  0  0  0  0  0  0  0  0  0
   36.6675  -14.2784   37.2343 C   0  0  0  0  0  0  0  0  0  0  0  0
   37.2091  -13.1744   37.7756 F   0  0  0  0  0  0  0  0  0  0  0  0
   36.7873  -15.5415   37.7963 C   0  0  0  0  0  0  0  0  0  0  0  0
   36.2108  -16.6311   37.1937 C   0  0  0  0  0  0  0  0  0  0  0  0
   36.9668  -18.8277   34.6933 C   0  0  0  0  0  0  0  0  0  0  0  0
   37.6776  -18.2418   33.6403 C   0  0  0  0  0  0  0  0  0  0  0  0
   39.0436  -18.4249   33.6505 C   0  0  0  0  0  0  0  0  0  0  0  0
   39.7185  -19.1324   34.6140 C   0  0  0  0  0  0  0  0  0  0  0  0
   39.0076  -19.7066   35.6483 C   0  0  0  0  0  0  0  0  0  0  0  0
   37.6562  -19.5440   35.6672 C   0  0  0  0  0  0  0  0  0  0  0  0
   41.4497  -19.3395   34.5976 S   0  0  0  0  0  0  0  0  0  0  0  0
   42.1397  -18.4113   35.9541 C   0  0  0  0  0  0  0  0  0  0  0  0
   41.9978  -18.7596   33.3099 O   0  0  0  0  0  0  0  0  0  0  0  0
   41.8292  -20.7767   34.6299 O   0  0  0  0  0  0  0  0  0  0  0  0
   30.3983  -19.1345   34.8066 C   0  0  0  0  0  0  0  0  0  0  0  0
   31.8553  -19.8602   34.0255 S   0  0  0  0  0  0  0  0  0  0  0  0
 24 25  1  0  0  0
 25  1  1  0  0  0
  1  2  2  0  0  0
  2  3  1  0  0  0
  3  7  1  0  0  0
  7  8  2  0  0  0
  8  9  1  0  0  0
  9 10  2  0  0  0
 10 11  1  0  0  0
 10 12  1  0  0  0
 12 13  2  0  0  0
  3  4  2  0  0  0
  4 14  1  0  0  0
 14 15  2  0  0  0
 15 16  1  0  0  0
 16 17  2  0  0  0
 17 20  1  0  0  0
 20 21  1  0  0  0
 20 22  2  0  0  0
 20 23  2  0  0  0
 17 18  1  0  0  0
 18 19  2  0  0  0
  4  5  1  0  0  0
  5  1  1  0  0  0
 13  7  1  0  0  0
 19 14  1  0  0  0
  5  6  1  0  0  0
M  END
> <minimizedAffinity>
-7.21775

> <CNNscore>
0.4180739820

> <CNNaffinity>
4.9086656570

> <CNN_VS>
2.0521852970

> <CNNaffinity_variance>
0.5855464935

$$$$
[H]c1c([H])c(-c2c([H])c(SC([H])([H])[H])n([H])c2-c2c([H])c([H])c(S(=O)(=O)C([H])([H])[H])c([H])c2[H])c([H])c([H])c1F


 25 27  0  0  0  0  0  0  0  0999 V2000
   34.2673  -14.8432   36.1580 C   0  0  0  0  0  0  0  0  0  0  0  0
   35.5559  -15.3573   35.9500 C   0  0  0  0  0  0  0  0  0  0  0  0
   35.4510  -16.7056   35.7140 C   0  0  0  0  0  0  0  0  0  0  0  0
   34.1177  -17.0116   35.7768 C   0  0  0  0  0  0  0  0  0  0  0  0
   33.4244  -15.8816   36.0438 N   0  0  0  0  0  0  0  0  0  0  0  0
   32.3962  -15.7948   36.1506 H   0  0  0  0  0  0  0  0  0  0  0  0
   36.5403  -17.6279   35.4486 C   0  0  0  0  0  0  0  0  0  0  0  0
   37.2945  -18.1415   36.4837 C   0  0  0  0  0  0  0  0  0  0  0  0
   38.3213  -19.0026   36.2796 C   0  0  0  0  0  0  0  0  0  0  0  0
   38.6455  -19.3960   35.0056 C   0  0  0  0  0  0  0  0  0  0  0  0
   39.6713  -20.2502   34.8540 F   0  0  0  0  0  0  0  0  0  0  0  0
   37.9049  -18.8963   33.9438 C   0  0  0  0  0  0  0  0  0  0  0  0
   36.8680  -18.0252   34.1646 C   0  0  0  0  0  0  0  0  0  0  0  0
   33.5697  -18.3406   35.5884 C   0  0  0  0  0  0  0  0  0  0  0  0
   32.8795  -18.6420   34.4094 C   0  0  0  0  0  0  0  0  0  0  0  0
   32.3909  -19.9260   34.3001 C   0  0  0  0  0  0  0  0  0  0  0  0
   32.5443  -20.8928   35.2626 C   0  0  0  0  0  0  0  0  0  0  0  0
   33.2266  -20.5849   36.4221 C   0  0  0  0  0  0  0  0  0  0  0  0
   33.7220  -19.3246   36.5608 C   0  0  0  0  0  0  0  0  0  0  0  0
   31.9164  -22.5100   35.0879 S   0  0  0  0  0  0  0  0  0  0  0  0
   30.2790  -22.5562   35.7912 C   0  0  0  0  0  0  0  0  0  0  0  0
   32.7904  -23.4605   35.8801 O   0  0  0  0  0  0  0  0  0  0  0  0
   31.9485  -22.9595   33.6711 O   0  0  0  0  0  0  0  0  0  0  0  0
   33.0725  -12.9724   38.1550 C   0  0  0  0  0  0  0  0  0  0  0  0
   33.7883  -13.1692   36.5093 S   0  0  0  0  0  0  0  0  0  0  0  0
 24 25  1  0  0  0
 25  1  1  0  0  0
  1  2  2  0  0  0
  2  3  1  0  0  0
  3  7  1  0  0  0
  7  8  2  0  0  0
  8  9  1  0  0  0
  9 10  2  0  0  0
 10 11  1  0  0  0
 10 12  1  0  0  0
 12 13  2  0  0  0
  3  4  2  0  0  0
  4 14  1  0  0  0
 14 15  2  0  0  0
 15 16  1  0  0  0
 16 17  2  0  0  0
 17 20  1  0  0  0
 20 21  1  0  0  0
 20 22  2  0  0  0
 20 23  2  0  0  0
 17 18  1  0  0  0
 18 19  2  0  0  0
  4  5  1  0  0  0
  5  1  1  0  0  0
 13  7  1  0  0  0
 19 14  1  0  0  0
  5  6  1  0  0  0
M  END
> <minimizedAffinity>
-6.66076

> <CNNscore>
0.3994855881

> <CNNaffinity>
4.9268035889

> <CNN_VS>
1.9681869745

> <CNNaffinity_variance>
0.4631613791

$$$$
[H]c1c([H])c(-c2c([H])c(SC([H])([H])[H])n([H])c2-c2c([H])c([H])c(S(=O)(=O)C([H])([H])[H])c([H])c2[H])c([H])c([H])c1F


 25 27  0  0  0  0  0  0  0  0999 V2000
   37.0387  -21.1849   38.5488 C   0  0  0  0  0  0  0  0  0  0  0  0
   36.7865  -20.0761   37.7270 C   0  0  0  0  0  0  0  0  0  0  0  0
   35.5674  -20.2546   37.1216 C   0  0  0  0  0  0  0  0  0  0  0  0
   35.0812  -21.4550   37.5665 C   0  0  0  0  0  0  0  0  0  0  0  0
   35.9778  -21.9973   38.4214 N   0  0  0  0  0  0  0  0  0  0  0  0
   35.8904  -22.9023   38.9209 H   0  0  0  0  0  0  0  0  0  0  0  0
   34.9189  -19.3480   36.1915 C   0  0  0  0  0  0  0  0  0  0  0  0
   34.5660  -19.7721   34.9268 C   0  0  0  0  0  0  0  0  0  0  0  0
   33.9618  -18.9577   34.0273 C   0  0  0  0  0  0  0  0  0  0  0  0
   33.6781  -17.6570   34.3598 C   0  0  0  0  0  0  0  0  0  0  0  0
   33.0792  -16.8885   33.4346 F   0  0  0  0  0  0  0  0  0  0  0  0
   34.0210  -17.2013   35.6248 C   0  0  0  0  0  0  0  0  0  0  0  0
   34.6323  -18.0365   36.5257 C   0  0  0  0  0  0  0  0  0  0  0  0
   33.8112  -22.0274   37.1643 C   0  0  0  0  0  0  0  0  0  0  0  0
   33.7870  -23.2666   36.5156 C   0  0  0  0  0  0  0  0  0  0  0  0
   32.5436  -23.7484   36.1674 C   0  0  0  0  0  0  0  0  0  0  0  0
   31.3650  -23.0910   36.4188 C   0  0  0  0  0  0  0  0  0  0  0  0
   31.4001  -21.8690   37.0591 C   0  0  0  0  0  0  0  0  0  0  0  0
   32.6132  -21.3653   37.4165 C   0  0  0  0  0  0  0  0  0  0  0  0
   29.8082  -23.7338   35.9680 S   0  0  0  0  0  0  0  0  0  0  0  0
   28.6448  -22.3854   35.8889 C   0  0  0  0  0  0  0  0  0  0  0  0
   29.3428  -24.6875   37.0492 O   0  0  0  0  0  0  0  0  0  0  0  0
   29.8817  -24.5073   34.7004 O   0  0  0  0  0  0  0  0  0  0  0  0
   39.5434  -22.7750   38.8858 C   0  0  0  0  0  0  0  0  0  0  0  0
   38.4571  -21.5049   39.5689 S   0  0  0  0  0  0  0  0  0  0  0  0
 24 25  1  0  0  0
 25  1  1  0  0  0
  1  2  2  0  0  0
  2  3  1  0  0  0
  3  7  1  0  0  0
  7  8  2  0  0  0
  8  9  1  0  0  0
  9 10  2  0  0  0
 10 11  1  0  0  0
 10 12  1  0  0  0
 12 13  2  0  0  0
  3  4  2  0  0  0
  4 14  1  0  0  0
 14 15  2  0  0  0
 15 16  1  0  0  0
 16 17  2  0  0  0
 17 20  1  0  0  0
 20 21  1  0  0  0
 20 22  2  0  0  0
 20 23  2  0  0  0
 17 18  1  0  0  0
 18 19  2  0  0  0
  4  5  1  0  0  0
  5  1  1  0  0  0
 13  7  1  0  0  0
 19 14  1  0  0  0
  5  6  1  0  0  0
M  END
> <minimizedAffinity>
-3.79232

> <CNNscore>
0.3956366777

> <CNNaffinity>
4.5234923363

> <CNN_VS>
1.7896595001

> <CNNaffinity_variance>
0.0516479984

$$$$
[H]c1c([H])c(-c2c([H])c(SC([H])([H])[H])n([H])c2-c2c([H])c([H])c(S(=O)(=O)C([H])([H])[H])c([H])c2[H])c([H])c([H])c1F


 25 27  0  0  0  0  0  0  0  0999 V2000
   36.0826  -15.7200   36.7267 C   0  0  0  0  0  0  0  0  0  0  0  0
   37.1718  -16.5187   36.3470 C   0  0  0  0  0  0  0  0  0  0  0  0
   36.6983  -17.7601   36.0013 C   0  0  0  0  0  0  0  0  0  0  0  0
   35.3396  -17.7211   36.1672 C   0  0  0  0  0  0  0  0  0  0  0  0
   34.9898  -16.4894   36.6026 N   0  0  0  0  0  0  0  0  0  0  0  0
   34.0313  -16.1561   36.8176 H   0  0  0  0  0  0  0  0  0  0  0  0
   37.4839  -18.8934   35.5476 C   0  0  0  0  0  0  0  0  0  0  0  0
   37.8181  -19.0291   34.2157 C   0  0  0  0  0  0  0  0  0  0  0  0
   38.5472  -20.0726   33.7500 C   0  0  0  0  0  0  0  0  0  0  0  0
   38.9831  -21.0460   34.6133 C   0  0  0  0  0  0  0  0  0  0  0  0
   39.7019  -22.0607   34.1044 F   0  0  0  0  0  0  0  0  0  0  0  0
   38.6628  -20.9370   35.9590 C   0  0  0  0  0  0  0  0  0  0  0  0
   37.9240  -19.8754   36.4170 C   0  0  0  0  0  0  0  0  0  0  0  0
   34.4484  -18.8365   35.9142 C   0  0  0  0  0  0  0  0  0  0  0  0
   33.9316  -19.0292   34.6285 C   0  0  0  0  0  0  0  0  0  0  0  0
   33.0951  -20.1121   34.4636 C   0  0  0  0  0  0  0  0  0  0  0  0
   32.7555  -20.9828   35.4690 C   0  0  0  0  0  0  0  0  0  0  0  0
   33.2706  -20.7834   36.7338 C   0  0  0  0  0  0  0  0  0  0  0  0
   34.1005  -19.7223   36.9297 C   0  0  0  0  0  0  0  0  0  0  0  0
   31.6971  -22.3464   35.2226 S   0  0  0  0  0  0  0  0  0  0  0  0
   32.2146  -23.6629   36.3075 C   0  0  0  0  0  0  0  0  0  0  0  0
   31.8510  -22.8313   33.7956 O   0  0  0  0  0  0  0  0  0  0  0  0
   30.2703  -21.9725   35.4091 O   0  0  0  0  0  0  0  0  0  0  0  0
   37.7534  -13.3597   37.4703 C   0  0  0  0  0  0  0  0  0  0  0  0
   36.0886  -14.0301   37.2735 S   0  0  0  0  0  0  0  0  0  0  0  0
 24 25  1  0  0  0
 25  1  1  0  0  0
  1  2  2  0  0  0
  2  3  1  0  0  0
  3  7  1  0  0  0
  7  8  2  0  0  0
  8  9  1  0  0  0
  9 10  2  0  0  0
 10 11  1  0  0  0
 10 12  1  0  0  0
 12 13  2  0  0  0
  3  4  2  0  0  0
  4 14  1  0  0  0
 14 15  2  0  0  0
 15 16  1  0  0  0
 16 17  2  0  0  0
 17 20  1  0  0  0
 20 21  1  0  0  0
 20 22  2  0  0  0
 20 23  2  0  0  0
 17 18  1  0  0  0
 18 19  2  0  0  0
  4  5  1  0  0  0
  5  1  1  0  0  0
 13  7  1  0  0  0
 19 14  1  0  0  0
  5  6  1  0  0  0
M  END
> <minimizedAffinity>
-5.50906

> <CNNscore>
0.3903589547

> <CNNaffinity>
4.8427829742

> <CNN_VS>
1.8904236555

> <CNNaffinity_variance>
0.2343535423

$$$$
[H]c1c([H])c(-c2c([H])c(SC([H])([H])[H])n([H])c2-c2c([H])c([H])c(S(=O)(=O)C([H])([H])[H])c([H])c2[H])c([H])c([H])c1F


 25 27  0  0  0  0  0  0  0  0999 V2000
   34.9233  -14.5680   36.5991 C   0  0  0  0  0  0  0  0  0  0  0  0
   34.0182  -15.3621   35.8791 C   0  0  0  0  0  0  0  0  0  0  0  0
   34.4619  -16.6609   35.9106 C   0  0  0  0  0  0  0  0  0  0  0  0
   35.6214  -16.6610   36.6392 C   0  0  0  0  0  0  0  0  0  0  0  0
   35.8811  -15.3969   37.0433 N   0  0  0  0  0  0  0  0  0  0  0  0
   36.6892  -15.0806   37.6117 H   0  0  0  0  0  0  0  0  0  0  0  0
   33.8262  -17.8107   35.2931 C   0  0  0  0  0  0  0  0  0  0  0  0
   32.6254  -18.2922   35.7729 C   0  0  0  0  0  0  0  0  0  0  0  0
   32.0000  -19.3641   35.2276 C   0  0  0  0  0  0  0  0  0  0  0  0
   32.5592  -20.0146   34.1566 C   0  0  0  0  0  0  0  0  0  0  0  0
   31.9021  -21.0720   33.6512 F   0  0  0  0  0  0  0  0  0  0  0  0
   33.7666  -19.5535   33.6516 C   0  0  0  0  0  0  0  0  0  0  0  0
   34.3890  -18.4674   34.2133 C   0  0  0  0  0  0  0  0  0  0  0  0
   36.4209  -17.8396   36.9115 C   0  0  0  0  0  0  0  0  0  0  0  0
   35.9270  -18.8246   37.7735 C   0  0  0  0  0  0  0  0  0  0  0  0
   36.7411  -19.9172   37.9809 C   0  0  0  0  0  0  0  0  0  0  0  0
   37.9744  -20.0797   37.4005 C   0  0  0  0  0  0  0  0  0  0  0  0
   38.4523  -19.1018   36.5519 C   0  0  0  0  0  0  0  0  0  0  0  0
   37.6720  -18.0095   36.3260 C   0  0  0  0  0  0  0  0  0  0  0  0
   38.9759  -21.4790   37.6822 S   0  0  0  0  0  0  0  0  0  0  0  0
   39.6457  -22.0147   36.1194 C   0  0  0  0  0  0  0  0  0  0  0  0
   38.1098  -22.5969   38.2255 O   0  0  0  0  0  0  0  0  0  0  0  0
   40.0275  -21.2040   38.6967 O   0  0  0  0  0  0  0  0  0  0  0  0
   33.3806  -12.2987   37.7763 C   0  0  0  0  0  0  0  0  0  0  0  0
   34.8672  -12.8171   36.8925 S   0  0  0  0  0  0  0  0  0  0  0  0
 24 25  1  0  0  0
 25  1  1  0  0  0
  1  2  2  0  0  0
  2  3  1  0  0  0
  3  7  1  0  0  0
  7  8  2  0  0  0
  8  9  1  0  0  0
  9 10  2  0  0  0
 10 11  1  0  0  0
 10 12  1  0  0  0
 12 13  2  0  0  0
  3  4  2  0  0  0
  4 14  1  0  0  0
 14 15  2  0  0  0
 15 16  1  0  0  0
 16 17  2  0  0  0
 17 20  1  0  0  0
 20 21  1  0  0  0
 20 22  2  0  0  0
 20 23  2  0  0  0
 17 18  1  0  0  0
 18 19  2  0  0  0
  4  5  1  0  0  0
  5  1  1  0  0  0
 13  7  1  0  0  0
 19 14  1  0  0  0
  5  6  1  0  0  0
M  END
> <minimizedAffinity>
-6.45194

> <CNNscore>
0.3822593391

> <CNNaffinity>
4.7552361488

> <CNN_VS>
1.8177334070

> <CNNaffinity_variance>
0.6912322044

$$$$
[H]OC([H])([H])C([H])([H])N([H])C(=O)[C@@]1([H])O[C@@]([H])(n2c([H])nc3c(N([H])C([H])([H])c4c([H])c([H])c([H])c([H])c4C([H])([H])[H])nc([H])nc32)[C@]([H])(O[H])[C@]1([H])O[H]


 36 39  0  0  0  0  0  0  0  0999 V2000
   33.1185  -18.4517   35.5625 C   0  0  0  0  0  0  0  0  0  0  0  0
   33.7999  -17.5526   34.8185 N   0  0  0  0  0  0  0  0  0  0  0  0
   35.1347  -17.4457   34.8702 C   0  0  0  0  0  0  0  0  0  0  0  0
   35.8168  -18.2587   35.6882 N   0  0  0  0  0  0  0  0  0  0  0  0
   35.2005  -19.1665   36.4473 C   0  0  0  0  0  0  0  0  0  0  0  0
   33.8443  -19.2790   36.3983 C   0  0  0  0  0  0  0  0  0  0  0  0
   33.4788  -20.2565   37.2487 N   0  0  0  0  0  0  0  0  0  0  0  0
   34.5752  -20.7654   37.8355 C   0  0  0  0  0  0  0  0  0  0  0  0
   35.6261  -20.0940   37.3408 N   0  0  0  0  0  0  0  0  0  0  0  0
   36.9851  -20.3269   37.7060 C   0  0  0  0  0  0  0  0  0  0  0  0
   37.8491  -20.3734   36.6146 O   0  0  0  0  0  0  0  0  0  0  0  0
   39.0228  -20.9133   37.1746 C   0  0  0  0  0  0  0  0  0  0  0  0
   38.4500  -22.1582   37.8425 C   0  0  0  0  0  0  0  0  0  0  0  0
   39.3175  -22.7353   38.7323 O   0  0  0  0  0  0  0  0  0  0  0  0
   37.2264  -21.5527   38.5198 C   0  0  0  0  0  0  0  0  0  0  0  0
   37.6193  -21.2412   39.8322 O   0  0  0  0  0  0  0  0  0  0  0  0
   39.0611  -23.6941   38.8520 H   0  0  0  0  0  0  0  0  0  0  0  0
   36.9755  -21.6202   40.4899 H   0  0  0  0  0  0  0  0  0  0  0  0
   40.0370  -21.2094   36.1762 C   0  0  0  0  0  0  0  0  0  0  0  0
   41.1230  -21.7337   36.5073 O   0  0  0  0  0  0  0  0  0  0  0  0
   39.8164  -20.9110   34.8111 N   0  0  0  0  0  0  0  0  0  0  0  0
   38.9216  -20.4753   34.5132 H   0  0  0  0  0  0  0  0  0  0  0  0
   40.8147  -21.1972   33.7918 C   0  0  0  0  0  0  0  0  0  0  0  0
   41.0059  -20.0088   32.9099 C   0  0  0  0  0  0  0  0  0  0  0  0
   40.8820  -20.3996   31.5752 O   0  0  0  0  0  0  0  0  0  0  0  0
   40.5548  -19.6462   30.9986 H   0  0  0  0  0  0  0  0  0  0  0  0
   31.7024  -18.5345   35.5043 N   0  0  0  0  0  0  0  0  0  0  0  0
   31.1563  -17.9085   36.1460 H   0  0  0  0  0  0  0  0  0  0  0  0
   31.0041  -19.4187   34.6247 C   0  0  0  0  0  0  0  0  0  0  0  0
   32.1743  -21.9962   34.4111 C   0  0  0  0  0  0  0  0  0  0  0  0
   30.9178  -21.8344   35.1541 C   0  0  0  0  0  0  0  0  0  0  0  0
   30.3209  -22.9171   35.7243 C   0  0  0  0  0  0  0  0  0  0  0  0
   29.1405  -22.7973   36.4286 C   0  0  0  0  0  0  0  0  0  0  0  0
   28.5367  -21.5668   36.5696 C   0  0  0  0  0  0  0  0  0  0  0  0
   29.1703  -20.4849   35.9768 C   0  0  0  0  0  0  0  0  0  0  0  0
   30.3444  -20.5650   35.2696 C   0  0  0  0  0  0  0  0  0  0  0  0
 30 31  1  0  0  0
 31 32  2  0  0  0
 32 33  1  0  0  0
 33 34  2  0  0  0
 34 35  1  0  0  0
 35 36  2  0  0  0
 36 29  1  0  0  0
 29 27  1  0  0  0
 27  1  1  0  0  0
  1  2  2  0  0  0
  2  3  1  0  0  0
  3  4  2  0  0  0
  4  5  1  0  0  0
  5  6  2  0  0  0
  6  7  1  0  0  0
  7  8  2  0  0  0
  8  9  1  0  0  0
  9 10  1  0  0  0
 10 11  1  0  0  0
 11 12  1  0  0  0
 12 19  1  0  0  0
 19 20  2  0  0  0
 19 21  1  0  0  0
 21 23  1  0  0  0
 23 24  1  0  0  0
 24 25  1  0  0  0
 12 13  1  0  0  0
 13 14  1  0  0  0
 13 15  1  0  0  0
 15 16  1  0  0  0
 36 31  1  0  0  0
  6  1  1  0  0  0
 15 10  1  0  0  0
  9  5  1  0  0  0
 27 28  1  0  0  0
 21 22  1  0  0  0
 25 26  1  0  0  0
 14 17  1  0  0  0
 16 18  1  0  0  0
M  END
> <minimizedAffinity>
-5.99470

> <CNNscore>
0.2742609680

> <CNNaffinity>
4.4720292091

> <CNN_VS>
1.2265030146

> <CNNaffinity_variance>
0.5526189804

$$$$
[H]OC([H])([H])C([H])([H])N([H])C(=O)[C@@]1([H])O[C@@]([H])(n2c([H])nc3c(N([H])C([H])([H])c4c([H])c([H])c([H])c([H])c4C([H])([H])[H])nc([H])nc32)[C@]([H])(O[H])[C@]1([H])O[H]


 36 39  0  0  0  0  0  0  0  0999 V2000
   36.2448  -18.3731   37.1190 C   0  0  0  0  0  0  0  0  0  0  0  0
   35.2280  -19.2250   37.3767 N   0  0  0  0  0  0  0  0  0  0  0  0
   35.3493  -20.5509   37.2246 C   0  0  0  0  0  0  0  0  0  0  0  0
   36.5194  -21.0485   36.8024 N   0  0  0  0  0  0  0  0  0  0  0  0
   37.5599  -20.2584   36.5318 C   0  0  0  0  0  0  0  0  0  0  0  0
   37.4418  -18.9104   36.6848 C   0  0  0  0  0  0  0  0  0  0  0  0
   38.6194  -18.3507   36.3503 N   0  0  0  0  0  0  0  0  0  0  0  0
   39.4812  -19.3160   35.9885 C   0  0  0  0  0  0  0  0  0  0  0  0
   38.8267  -20.4817   36.1017 N   0  0  0  0  0  0  0  0  0  0  0  0
   39.3870  -21.7607   35.8105 C   0  0  0  0  0  0  0  0  0  0  0  0
   40.6139  -21.9797   36.4320 O   0  0  0  0  0  0  0  0  0  0  0  0
   41.0973  -23.1212   35.7644 C   0  0  0  0  0  0  0  0  0  0  0  0
   40.9623  -22.6597   34.3177 C   0  0  0  0  0  0  0  0  0  0  0  0
   41.0774  -23.6849   33.4159 O   0  0  0  0  0  0  0  0  0  0  0  0
   39.5588  -22.0674   34.3614 C   0  0  0  0  0  0  0  0  0  0  0  0
   38.6904  -23.0862   33.9352 O   0  0  0  0  0  0  0  0  0  0  0  0
   41.3432  -23.3032   32.5310 H   0  0  0  0  0  0  0  0  0  0  0  0
   38.0919  -22.7563   33.2115 H   0  0  0  0  0  0  0  0  0  0  0  0
   42.4617  -23.4552   36.1382 C   0  0  0  0  0  0  0  0  0  0  0  0
   43.0426  -24.4343   35.6206 O   0  0  0  0  0  0  0  0  0  0  0  0
   43.1597  -22.6801   37.0939 N   0  0  0  0  0  0  0  0  0  0  0  0
   42.6969  -21.8623   37.5367 H   0  0  0  0  0  0  0  0  0  0  0  0
   44.5258  -22.9926   37.4857 C   0  0  0  0  0  0  0  0  0  0  0  0
   44.5445  -23.6028   38.8473 C   0  0  0  0  0  0  0  0  0  0  0  0
   43.5505  -23.0136   39.6309 O   0  0  0  0  0  0  0  0  0  0  0  0
   43.2174  -23.6420   40.3391 H   0  0  0  0  0  0  0  0  0  0  0  0
   36.0874  -16.9702   37.2703 N   0  0  0  0  0  0  0  0  0  0  0  0
   35.9853  -16.5993   38.2470 H   0  0  0  0  0  0  0  0  0  0  0  0
   36.0625  -16.0606   36.1681 C   0  0  0  0  0  0  0  0  0  0  0  0
   37.3745  -13.7909   37.2570 C   0  0  0  0  0  0  0  0  0  0  0  0
   35.9449  -13.7093   36.9303 C   0  0  0  0  0  0  0  0  0  0  0  0
   35.2599  -12.5551   37.1593 C   0  0  0  0  0  0  0  0  0  0  0  0
   33.9167  -12.4475   36.8628 C   0  0  0  0  0  0  0  0  0  0  0  0
   33.2356  -13.5171   36.3239 C   0  0  0  0  0  0  0  0  0  0  0  0
   33.9623  -14.6774   36.1032 C   0  0  0  0  0  0  0  0  0  0  0  0
   35.2984  -14.8219   36.3847 C   0  0  0  0  0  0  0  0  0  0  0  0
 30 31  1  0  0  0
 31 32  2  0  0  0
 32 33  1  0  0  0
 33 34  2  0  0  0
 34 35  1  0  0  0
 35 36  2  0  0  0
 36 29  1  0  0  0
 29 27  1  0  0  0
 27  1  1  0  0  0
  1  2  2  0  0  0
  2  3  1  0  0  0
  3  4  2  0  0  0
  4  5  1  0  0  0
  5  6  2  0  0  0
  6  7  1  0  0  0
  7  8  2  0  0  0
  8  9  1  0  0  0
  9 10  1  0  0  0
 10 11  1  0  0  0
 11 12  1  0  0  0
 12 19  1  0  0  0
 19 20  2  0  0  0
 19 21  1  0  0  0
 21 23  1  0  0  0
 23 24  1  0  0  0
 24 25  1  0  0  0
 12 13  1  0  0  0
 13 14  1  0  0  0
 13 15  1  0  0  0
 15 16  1  0  0  0
 36 31  1  0  0  0
  6  1  1  0  0  0
 15 10  1  0  0  0
  9  5  1  0  0  0
 27 28  1  0  0  0
 21 22  1  0  0  0
 25 26  1  0  0  0
 14 17  1  0  0  0
 16 18  1  0  0  0
M  END
> <minimizedAffinity>
-6.07094

> <CNNscore>
0.2381489873

> <CNNaffinity>
4.7102370262

> <CNN_VS>
1.1217381954

> <CNNaffinity_variance>
0.2315311134

$$$$
[H]OC([H])([H])C([H])([H])N([H])C(=O)[C@@]1([H])O[C@@]([H])(n2c([H])nc3c(N([H])C([H])([H])c4c([H])c([H])c([H])c([H])c4C([H])([H])[H])nc([H])nc32)[C@]([H])(O[H])[C@]1([H])O[H]


 36 39  0  0  0  0  0  0  0  0999 V2000
   34.8352  -13.5834   36.6106 C   0  0  0  0  0  0  0  0  0  0  0  0
   36.0375  -13.1360   37.0354 N   0  0  0  0  0  0  0  0  0  0  0  0
   37.1246  -13.9192   37.0598 C   0  0  0  0  0  0  0  0  0  0  0  0
   37.0151  -15.1897   36.6487 N   0  0  0  0  0  0  0  0  0  0  0  0
   35.8552  -15.6891   36.2182 C   0  0  0  0  0  0  0  0  0  0  0  0
   34.7476  -14.8974   36.1915 C   0  0  0  0  0  0  0  0  0  0  0  0
   33.7233  -15.6337   35.7217 N   0  0  0  0  0  0  0  0  0  0  0  0
   34.1589  -16.8754   35.4503 C   0  0  0  0  0  0  0  0  0  0  0  0
   35.4649  -16.9032   35.7564 N   0  0  0  0  0  0  0  0  0  0  0  0
   36.3094  -18.0439   35.6147 C   0  0  0  0  0  0  0  0  0  0  0  0
   37.4726  -17.9668   36.3767 O   0  0  0  0  0  0  0  0  0  0  0  0
   38.2585  -19.0066   35.8440 C   0  0  0  0  0  0  0  0  0  0  0  0
   38.2027  -18.6495   34.3630 C   0  0  0  0  0  0  0  0  0  0  0  0
   38.6346  -19.6652   33.5510 O   0  0  0  0  0  0  0  0  0  0  0  0
   36.7116  -18.3707   34.2166 C   0  0  0  0  0  0  0  0  0  0  0  0
   36.1309  -19.5700   33.7713 O   0  0  0  0  0  0  0  0  0  0  0  0
   38.9180  -19.2751   32.6752 H   0  0  0  0  0  0  0  0  0  0  0  0
   35.5669  -19.4087   32.9672 H   0  0  0  0  0  0  0  0  0  0  0  0
   39.6085  -19.0231   36.3828 C   0  0  0  0  0  0  0  0  0  0  0  0
   39.8577  -19.6087   37.4593 O   0  0  0  0  0  0  0  0  0  0  0  0
   40.6668  -18.3780   35.7010 N   0  0  0  0  0  0  0  0  0  0  0  0
   40.4829  -17.8854   34.8050 H   0  0  0  0  0  0  0  0  0  0  0  0
   42.0270  -18.3796   36.2182 C   0  0  0  0  0  0  0  0  0  0  0  0
   42.8278  -17.3032   35.5650 C   0  0  0  0  0  0  0  0  0  0  0  0
   42.5368  -16.0792   36.1705 O   0  0  0  0  0  0  0  0  0  0  0  0
   43.3125  -15.4449   36.1131 H   0  0  0  0  0  0  0  0  0  0  0  0
   33.6930  -12.7402   36.6106 N   0  0  0  0  0  0  0  0  0  0  0  0
   33.0314  -12.8250   35.8000 H   0  0  0  0  0  0  0  0  0  0  0  0
   33.4132  -11.7988   37.6492 C   0  0  0  0  0  0  0  0  0  0  0  0
   32.7552   -9.0557   37.3319 C   0  0  0  0  0  0  0  0  0  0  0  0
   31.6885  -10.0247   37.6152 C   0  0  0  0  0  0  0  0  0  0  0  0
   30.3996   -9.6020   37.7325 C   0  0  0  0  0  0  0  0  0  0  0  0
   29.3757  -10.4879   37.9980 C   0  0  0  0  0  0  0  0  0  0  0  0
   29.6407  -11.8313   38.1514 C   0  0  0  0  0  0  0  0  0  0  0  0
   30.9635  -12.2286   38.0260 C   0  0  0  0  0  0  0  0  0  0  0  0
   32.0079  -11.3775   37.7620 C   0  0  0  0  0  0  0  0  0  0  0  0
 30 31  1  0  0  0
 31 32  2  0  0  0
 32 33  1  0  0  0
 33 34  2  0  0  0
 34 35  1  0  0  0
 35 36  2  0  0  0
 36 29  1  0  0  0
 29 27  1  0  0  0
 27  1  1  0  0  0
  1  2  2  0  0  0
  2  3  1  0  0  0
  3  4  2  0  0  0
  4  5  1  0  0  0
  5  6  2  0  0  0
  6  7  1  0  0  0
  7  8  2  0  0  0
  8  9  1  0  0  0
  9 10  1  0  0  0
 10 11  1  0  0  0
 11 12  1  0  0  0
 12 19  1  0  0  0
 19 20  2  0  0  0
 19 21  1  0  0  0
 21 23  1  0  0  0
 23 24  1  0  0  0
 24 25  1  0  0  0
 12 13  1  0  0  0
 13 14  1  0  0  0
 13 15  1  0  0  0
 15 16  1  0  0  0
 36 31  1  0  0  0
  6  1  1  0  0  0
 15 10  1  0  0  0
  9  5  1  0  0  0
 27 28  1  0  0  0
 21 22  1  0  0  0
 25 26  1  0  0  0
 14 17  1  0  0  0
 16 18  1  0  0  0
M  END
> <minimizedAffinity>
-9.34967

> <CNNscore>
0.2212446928

> <CNNaffinity>
5.2917304039

> <CNN_VS>
1.1707673073

> <CNNaffinity_variance>
0.5675551295

$$$$
[H]OC([H])([H])C([H])([H])N([H])C(=O)[C@@]1([H])O[C@@]([H])(n2c([H])nc3c(N([H])C([H])([H])c4c([H])c([H])c([H])c([H])c4C([H])([H])[H])nc([H])nc32)[C@]([H])(O[H])[C@]1([H])O[H]


 36 39  0  0  0  0  0  0  0  0999 V2000
   35.2819  -12.9521   36.6436 C   0  0  0  0  0  0  0  0  0  0  0  0
   36.5403  -12.8491   37.1250 N   0  0  0  0  0  0  0  0  0  0  0  0
   37.3252  -13.9192   37.3110 C   0  0  0  0  0  0  0  0  0  0  0  0
   36.8451  -15.1330   37.0090 N   0  0  0  0  0  0  0  0  0  0  0  0
   35.6108  -15.2989   36.5303 C   0  0  0  0  0  0  0  0  0  0  0  0
   34.8093  -14.2147   36.3395 C   0  0  0  0  0  0  0  0  0  0  0  0
   33.6316  -14.6504   35.8544 N   0  0  0  0  0  0  0  0  0  0  0  0
   33.6703  -15.9881   35.7341 C   0  0  0  0  0  0  0  0  0  0  0  0
   34.8845  -16.3793   36.1494 N   0  0  0  0  0  0  0  0  0  0  0  0
   35.3360  -17.7318   36.1827 C   0  0  0  0  0  0  0  0  0  0  0  0
   34.2981  -18.6603   36.1629 O   0  0  0  0  0  0  0  0  0  0  0  0
   34.9497  -19.8574   36.5161 C   0  0  0  0  0  0  0  0  0  0  0  0
   35.6497  -19.4114   37.7949 C   0  0  0  0  0  0  0  0  0  0  0  0
   36.6153  -20.2901   38.2108 O   0  0  0  0  0  0  0  0  0  0  0  0
   36.2254  -18.0799   37.3278 C   0  0  0  0  0  0  0  0  0  0  0  0
   37.5393  -18.3471   36.9081 O   0  0  0  0  0  0  0  0  0  0  0  0
   36.7709  -20.1537   39.1889 H   0  0  0  0  0  0  0  0  0  0  0  0
   38.1794  -17.7188   37.3394 H   0  0  0  0  0  0  0  0  0  0  0  0
   34.0260  -20.9612   36.7192 C   0  0  0  0  0  0  0  0  0  0  0  0
   33.8678  -21.4587   37.8556 O   0  0  0  0  0  0  0  0  0  0  0  0
   33.2877  -21.4945   35.6367 N   0  0  0  0  0  0  0  0  0  0  0  0
   33.4031  -21.0968   34.6840 H   0  0  0  0  0  0  0  0  0  0  0  0
   32.3566  -22.5989   35.8128 C   0  0  0  0  0  0  0  0  0  0  0  0
   30.9601  -22.0836   35.9177 C   0  0  0  0  0  0  0  0  0  0  0  0
   30.8599  -21.2445   37.0291 O   0  0  0  0  0  0  0  0  0  0  0  0
   30.1462  -20.5500   36.9044 H   0  0  0  0  0  0  0  0  0  0  0  0
   34.4623  -11.8057   36.4717 N   0  0  0  0  0  0  0  0  0  0  0  0
   34.2565  -11.5035   35.4877 H   0  0  0  0  0  0  0  0  0  0  0  0
   33.9170  -11.0608   37.5630 C   0  0  0  0  0  0  0  0  0  0  0  0
   32.4960   -8.6378   37.1527 C   0  0  0  0  0  0  0  0  0  0  0  0
   31.7528   -9.8647   37.4683 C   0  0  0  0  0  0  0  0  0  0  0  0
   30.3956   -9.8302   37.5707 C   0  0  0  0  0  0  0  0  0  0  0  0
   29.6695  -10.9657   37.8656 C   0  0  0  0  0  0  0  0  0  0  0  0
   30.3106  -12.1690   38.0646 C   0  0  0  0  0  0  0  0  0  0  0  0
   31.6930  -12.1697   37.9533 C   0  0  0  0  0  0  0  0  0  0  0  0
   32.4488  -11.0614   37.6610 C   0  0  0  0  0  0  0  0  0  0  0  0
 30 31  1  0  0  0
 31 32  2  0  0  0
 32 33  1  0  0  0
 33 34  2  0  0  0
 34 35  1  0  0  0
 35 36  2  0  0  0
 36 29  1  0  0  0
 29 27  1  0  0  0
 27  1  1  0  0  0
  1  2  2  0  0  0
  2  3  1  0  0  0
  3  4  2  0  0  0
  4  5  1  0  0  0
  5  6  2  0  0  0
  6  7  1  0  0  0
  7  8  2  0  0  0
  8  9  1  0  0  0
  9 10  1  0  0  0
 10 11  1  0  0  0
 11 12  1  0  0  0
 12 19  1  0  0  0
 19 20  2  0  0  0
 19 21  1  0  0  0
 21 23  1  0  0  0
 23 24  1  0  0  0
 24 25  1  0  0  0
 12 13  1  0  0  0
 13 14  1  0  0  0
 13 15  1  0  0  0
 15 16  1  0  0  0
 36 31  1  0  0  0
  6  1  1  0  0  0
 15 10  1  0  0  0
  9  5  1  0  0  0
 27 28  1  0  0  0
 21 22  1  0  0  0
 25 26  1  0  0  0
 14 17  1  0  0  0
 16 18  1  0  0  0
M  END
> <minimizedAffinity>
-8.32285

> <CNNscore>
0.2202720493

> <CNNaffinity>
5.3405470848

> <CNN_VS>
1.1763732433

> <CNNaffinity_variance>
0.3691087663

$$$$
[H]OC([H])([H])C([H])([H])N([H])C(=O)[C@@]1([H])O[C@@]([H])(n2c([H])nc3c(N([H])C([H])([H])c4c([H])c([H])c([H])c([H])c4C([H])([H])[H])nc([H])nc32)[C@]([H])(O[H])[C@]1([H])O[H]


 36 39  0  0  0  0  0  0  0  0999 V2000
   39.2386  -19.1169   35.4653 C   0  0  0  0  0  0  0  0  0  0  0  0
   39.3951  -19.7171   36.6659 N   0  0  0  0  0  0  0  0  0  0  0  0
   38.3580  -19.9944   37.4680 C   0  0  0  0  0  0  0  0  0  0  0  0
   37.1234  -19.6650   37.0651 N   0  0  0  0  0  0  0  0  0  0  0  0
   36.9050  -19.0708   35.8906 C   0  0  0  0  0  0  0  0  0  0  0  0
   37.9555  -18.7869   35.0719 C   0  0  0  0  0  0  0  0  0  0  0  0
   37.4696  -18.1965   33.9641 N   0  0  0  0  0  0  0  0  0  0  0  0
   36.1331  -18.1003   34.0639 C   0  0  0  0  0  0  0  0  0  0  0  0
   35.7934  -18.6373   35.2455 N   0  0  0  0  0  0  0  0  0  0  0  0
   34.4597  -18.7334   35.7419 C   0  0  0  0  0  0  0  0  0  0  0  0
   34.0297  -20.0465   35.9168 O   0  0  0  0  0  0  0  0  0  0  0  0
   32.6412  -19.8943   36.0941 C   0  0  0  0  0  0  0  0  0  0  0  0
   32.3061  -19.0606   34.8625 C   0  0  0  0  0  0  0  0  0  0  0  0
   31.0590  -18.4961   34.9215 O   0  0  0  0  0  0  0  0  0  0  0  0
   33.4249  -18.0282   34.9326 C   0  0  0  0  0  0  0  0  0  0  0  0
   32.8931  -16.9202   35.6132 O   0  0  0  0  0  0  0  0  0  0  0  0
   30.7587  -18.2875   33.9911 H   0  0  0  0  0  0  0  0  0  0  0  0
   33.0505  -16.0836   35.0974 H   0  0  0  0  0  0  0  0  0  0  0  0
   31.9377  -21.1655   36.1389 C   0  0  0  0  0  0  0  0  0  0  0  0
   30.7262  -21.2128   36.4453 O   0  0  0  0  0  0  0  0  0  0  0  0
   32.6084  -22.3739   35.8368 N   0  0  0  0  0  0  0  0  0  0  0  0
   33.6148  -22.3585   35.5796 H   0  0  0  0  0  0  0  0  0  0  0  0
   31.9278  -23.6595   35.8740 C   0  0  0  0  0  0  0  0  0  0  0  0
   31.2066  -23.8980   34.5896 C   0  0  0  0  0  0  0  0  0  0  0  0
   29.8413  -23.6754   34.7785 O   0  0  0  0  0  0  0  0  0  0  0  0
   29.3944  -23.3793   33.9301 H   0  0  0  0  0  0  0  0  0  0  0  0
   40.3543  -18.8167   34.6403 N   0  0  0  0  0  0  0  0  0  0  0  0
   40.1762  -18.2443   33.7785 H   0  0  0  0  0  0  0  0  0  0  0  0
   41.6839  -19.2540   34.9299 C   0  0  0  0  0  0  0  0  0  0  0  0
   43.6705  -20.7777   36.2679 C   0  0  0  0  0  0  0  0  0  0  0  0
   43.0268  -21.3279   35.0679 C   0  0  0  0  0  0  0  0  0  0  0  0
   43.3917  -22.5542   34.6022 C   0  0  0  0  0  0  0  0  0  0  0  0
   42.8054  -23.0979   33.4779 C   0  0  0  0  0  0  0  0  0  0  0  0
   41.8293  -22.4031   32.7974 C   0  0  0  0  0  0  0  0  0  0  0  0
   41.4811  -21.1574   33.2977 C   0  0  0  0  0  0  0  0  0  0  0  0
   42.0412  -20.5844   34.4126 C   0  0  0  0  0  0  0  0  0  0  0  0
 30 31  1  0  0  0
 31 32  2  0  0  0
 32 33  1  0  0  0
 33 34  2  0  0  0
 34 35  1  0  0  0
 35 36  2  0  0  0
 36 29  1  0  0  0
 29 27  1  0  0  0
 27  1  1  0  0  0
  1  2  2  0  0  0
  2  3  1  0  0  0
  3  4  2  0  0  0
  4  5  1  0  0  0
  5  6  2  0  0  0
  6  7  1  0  0  0
  7  8  2  0  0  0
  8  9  1  0  0  0
  9 10  1  0  0  0
 10 11  1  0  0  0
 11 12  1  0  0  0
 12 19  1  0  0  0
 19 20  2  0  0  0
 19 21  1  0  0  0
 21 23  1  0  0  0
 23 24  1  0  0  0
 24 25  1  0  0  0
 12 13  1  0  0  0
 13 14  1  0  0  0
 13 15  1  0  0  0
 15 16  1  0  0  0
 36 31  1  0  0  0
  6  1  1  0  0  0
 15 10  1  0  0  0
  9  5  1  0  0  0
 27 28  1  0  0  0
 21 22  1  0  0  0
 25 26  1  0  0  0
 14 17  1  0  0  0
 16 18  1  0  0  0
M  END
> <minimizedAffinity>
-5.86294

> <CNNscore>
0.1971356422

> <CNNaffinity>
4.3630132675

> <CNN_VS>
0.8601053953

> <CNNaffinity_variance>
0.3563574851

$$$$
[H]OC([H])([H])C([H])([H])N([H])C(=O)[C@@]1([H])O[C@@]([H])(n2c([H])nc3c(N([H])C([H])([H])c4c([H])c([H])c([H])c([H])c4C([H])([H])[H])nc([H])nc32)[C@]([H])(O[H])[C@]1([H])O[H]


 36 39  0  0  0  0  0  0  0  0999 V2000
   34.4845  -14.3084   36.9066 C   0  0  0  0  0  0  0  0  0  0  0  0
   35.5712  -13.7834   37.5145 N   0  0  0  0  0  0  0  0  0  0  0  0
   36.7434  -14.4305   37.5689 C   0  0  0  0  0  0  0  0  0  0  0  0
   36.8407  -15.6400   37.0007 N   0  0  0  0  0  0  0  0  0  0  0  0
   35.8032  -16.2107   36.3859 C   0  0  0  0  0  0  0  0  0  0  0  0
   34.6099  -15.5571   36.3279 C   0  0  0  0  0  0  0  0  0  0  0  0
   33.7408  -16.3399   35.6615 N   0  0  0  0  0  0  0  0  0  0  0  0
   34.3586  -17.4758   35.2963 C   0  0  0  0  0  0  0  0  0  0  0  0
   35.6210  -17.3908   35.7425 N   0  0  0  0  0  0  0  0  0  0  0  0
   36.6165  -18.3964   35.5634 C   0  0  0  0  0  0  0  0  0  0  0  0
   37.7406  -18.2082   36.3637 O   0  0  0  0  0  0  0  0  0  0  0  0
   38.6732  -19.0988   35.7982 C   0  0  0  0  0  0  0  0  0  0  0  0
   38.6028  -18.6651   34.3384 C   0  0  0  0  0  0  0  0  0  0  0  0
   39.1878  -19.5630   33.4846 O   0  0  0  0  0  0  0  0  0  0  0  0
   37.0913  -18.5822   34.1622 C   0  0  0  0  0  0  0  0  0  0  0  0
   36.6903  -19.8203   33.6331 O   0  0  0  0  0  0  0  0  0  0  0  0
   39.4351  -19.0869   32.6410 H   0  0  0  0  0  0  0  0  0  0  0  0
   36.1279  -19.6892   32.8224 H   0  0  0  0  0  0  0  0  0  0  0  0
   40.0002  -18.9647   36.3763 C   0  0  0  0  0  0  0  0  0  0  0  0
   40.2659  -19.4750   37.4866 O   0  0  0  0  0  0  0  0  0  0  0  0
   41.0170  -18.2551   35.6953 N   0  0  0  0  0  0  0  0  0  0  0  0
   40.8187  -17.8230   34.7716 H   0  0  0  0  0  0  0  0  0  0  0  0
   42.3534  -18.1062   36.2515 C   0  0  0  0  0  0  0  0  0  0  0  0
   43.0403  -16.9337   35.6350 C   0  0  0  0  0  0  0  0  0  0  0  0
   42.6361  -15.7668   36.2864 O   0  0  0  0  0  0  0  0  0  0  0  0
   43.3458  -15.0581   36.2491 H   0  0  0  0  0  0  0  0  0  0  0  0
   33.2478  -13.6118   36.8772 N   0  0  0  0  0  0  0  0  0  0  0  0
   32.6873  -13.6621   35.9910 H   0  0  0  0  0  0  0  0  0  0  0  0
   32.7451  -12.8593   37.9836 C   0  0  0  0  0  0  0  0  0  0  0  0
   30.1134  -11.8120   37.7950 C   0  0  0  0  0  0  0  0  0  0  0  0
   31.2613  -10.9095   37.6375 C   0  0  0  0  0  0  0  0  0  0  0  0
   31.0569   -9.5856   37.3941 C   0  0  0  0  0  0  0  0  0  0  0  0
   32.1145   -8.7128   37.2416 C   0  0  0  0  0  0  0  0  0  0  0  0
   33.4114   -9.1689   37.3335 C   0  0  0  0  0  0  0  0  0  0  0  0
   33.5848  -10.5223   37.5820 C   0  0  0  0  0  0  0  0  0  0  0  0
   32.5583  -11.4203   37.7398 C   0  0  0  0  0  0  0  0  0  0  0  0
 30 31  1  0  0  0
 31 32  2  0  0  0
 32 33  1  0  0  0
 33 34  2  0  0  0
 34 35  1  0  0  0
 35 36  2  0  0  0
 36 29  1  0  0  0
 29 27  1  0  0  0
 27  1  1  0  0  0
  1  2  2  0  0  0
  2  3  1  0  0  0
  3  4  2  0  0  0
  4  5  1  0  0  0
  5  6  2  0  0  0
  6  7  1  0  0  0
  7  8  2  0  0  0
  8  9  1  0  0  0
  9 10  1  0  0  0
 10 11  1  0  0  0
 11 12  1  0  0  0
 12 19  1  0  0  0
 19 20  2  0  0  0
 19 21  1  0  0  0
 21 23  1  0  0  0
 23 24  1  0  0  0
 24 25  1  0  0  0
 12 13  1  0  0  0
 13 14  1  0  0  0
 13 15  1  0  0  0
 15 16  1  0  0  0
 36 31  1  0  0  0
  6  1  1  0  0  0
 15 10  1  0  0  0
  9  5  1  0  0  0
 27 28  1  0  0  0
 21 22  1  0  0  0
 25 26  1  0  0  0
 14 17  1  0  0  0
 16 18  1  0  0  0
M  END
> <minimizedAffinity>
-9.59723

> <CNNscore>
0.1965141147

> <CNNaffinity>
5.2717871666

> <CNN_VS>
1.0359805822

> <CNNaffinity_variance>
0.5825904012

$$$$
[H]OC([H])([H])C([H])([H])N([H])C(=O)[C@@]1([H])O[C@@]([H])(n2c([H])nc3c(N([H])C([H])([H])c4c([H])c([H])c([H])c([H])c4C([H])([H])[H])nc([H])nc32)[C@]([H])(O[H])[C@]1([H])O[H]


 36 39  0  0  0  0  0  0  0  0999 V2000
   35.1616  -13.5941   36.6801 C   0  0  0  0  0  0  0  0  0  0  0  0
   36.3924  -13.4841   37.2269 N   0  0  0  0  0  0  0  0  0  0  0  0
   37.2120  -14.5357   37.3622 C   0  0  0  0  0  0  0  0  0  0  0  0
   36.7961  -15.7375   36.9404 N   0  0  0  0  0  0  0  0  0  0  0  0
   35.5919  -15.9094   36.3923 C   0  0  0  0  0  0  0  0  0  0  0  0
   34.7554  -14.8440   36.2526 C   0  0  0  0  0  0  0  0  0  0  0  0
   33.6191  -15.2818   35.6789 N   0  0  0  0  0  0  0  0  0  0  0  0
   33.7183  -16.6025   35.4524 C   0  0  0  0  0  0  0  0  0  0  0  0
   34.9283  -16.9809   35.8912 N   0  0  0  0  0  0  0  0  0  0  0  0
   35.4334  -18.3137   35.8359 C   0  0  0  0  0  0  0  0  0  0  0  0
   36.1159  -18.6930   36.9891 O   0  0  0  0  0  0  0  0  0  0  0  0
   36.7692  -19.8732   36.5856 C   0  0  0  0  0  0  0  0  0  0  0  0
   37.4673  -19.3728   35.3260 C   0  0  0  0  0  0  0  0  0  0  0  0
   37.9457  -20.3881   34.5401 O   0  0  0  0  0  0  0  0  0  0  0  0
   36.3183  -18.6132   34.6738 C   0  0  0  0  0  0  0  0  0  0  0  0
   35.7167  -19.5097   33.7748 O   0  0  0  0  0  0  0  0  0  0  0  0
   38.6756  -20.0263   33.9605 H   0  0  0  0  0  0  0  0  0  0  0  0
   35.6281  -19.0959   32.8739 H   0  0  0  0  0  0  0  0  0  0  0  0
   37.6881  -20.3790   37.5919 C   0  0  0  0  0  0  0  0  0  0  0  0
   38.9231  -20.3543   37.3968 O   0  0  0  0  0  0  0  0  0  0  0  0
   37.2046  -20.9089   38.8112 N   0  0  0  0  0  0  0  0  0  0  0  0
   36.1825  -20.9394   38.9947 H   0  0  0  0  0  0  0  0  0  0  0  0
   38.1027  -21.4215   39.8350 C   0  0  0  0  0  0  0  0  0  0  0  0
   37.3866  -21.5331   41.1394 C   0  0  0  0  0  0  0  0  0  0  0  0
   36.0093  -21.5404   40.9109 O   0  0  0  0  0  0  0  0  0  0  0  0
   35.5187  -22.0444   41.6269 H   0  0  0  0  0  0  0  0  0  0  0  0
   34.3036  -12.4689   36.5634 N   0  0  0  0  0  0  0  0  0  0  0  0
   33.9770  -12.2098   35.6001 H   0  0  0  0  0  0  0  0  0  0  0  0
   33.8753  -11.6900   37.6828 C   0  0  0  0  0  0  0  0  0  0  0  0
   33.0993   -8.9985   37.2223 C   0  0  0  0  0  0  0  0  0  0  0  0
   32.0684  -10.0111   37.4849 C   0  0  0  0  0  0  0  0  0  0  0  0
   30.7552   -9.6524   37.5150 C   0  0  0  0  0  0  0  0  0  0  0  0
   29.7638  -10.5804   37.7589 C   0  0  0  0  0  0  0  0  0  0  0  0
   30.0869  -11.9016   37.9793 C   0  0  0  0  0  0  0  0  0  0  0  0
   31.4329  -12.2334   37.9420 C   0  0  0  0  0  0  0  0  0  0  0  0
   32.4465  -11.3390   37.7021 C   0  0  0  0  0  0  0  0  0  0  0  0
 30 31  1  0  0  0
 31 32  2  0  0  0
 32 33  1  0  0  0
 33 34  2  0  0  0
 34 35  1  0  0  0
 35 36  2  0  0  0
 36 29  1  0  0  0
 29 27  1  0  0  0
 27  1  1  0  0  0
  1  2  2  0  0  0
  2  3  1  0  0  0
  3  4  2  0  0  0
  4  5  1  0  0  0
  5  6  2  0  0  0
  6  7  1  0  0  0
  7  8  2  0  0  0
  8  9  1  0  0  0
  9 10  1  0  0  0
 10 11  1  0  0  0
 11 12  1  0  0  0
 12 19  1  0  0  0
 19 20  2  0  0  0
 19 21  1  0  0  0
 21 23  1  0  0  0
 23 24  1  0  0  0
 24 25  1  0  0  0
 12 13  1  0  0  0
 13 14  1  0  0  0
 13 15  1  0  0  0
 15 16  1  0  0  0
 36 31  1  0  0  0
  6  1  1  0  0  0
 15 10  1  0  0  0
  9  5  1  0  0  0
 27 28  1  0  0  0
 21 22  1  0  0  0
 25 26  1  0  0  0
 14 17  1  0  0  0
 16 18  1  0  0  0
M  END
> <minimizedAffinity>
-8.28677

> <CNNscore>
0.1920484900

> <CNNaffinity>
5.1307458878

> <CNN_VS>
0.9853519797

> <CNNaffinity_variance>
0.4736566544

$$$$
[H]OC([H])([H])C([H])([H])N([H])C(=O)[C@@]1([H])O[C@@]([H])(n2c([H])nc3c(N([H])C([H])([H])c4c([H])c([H])c([H])c([H])c4C([H])([H])[H])nc([H])nc32)[C@]([H])(O[H])[C@]1([H])O[H]


 36 39  0  0  0  0  0  0  0  0999 V2000
   33.9504  -16.1416   35.5733 C   0  0  0  0  0  0  0  0  0  0  0  0
   33.2437  -16.9400   34.7432 N   0  0  0  0  0  0  0  0  0  0  0  0
   33.7201  -18.1111   34.2990 C   0  0  0  0  0  0  0  0  0  0  0  0
   34.9395  -18.5034   34.6918 N   0  0  0  0  0  0  0  0  0  0  0  0
   35.6851  -17.7588   35.5103 C   0  0  0  0  0  0  0  0  0  0  0  0
   35.2054  -16.5680   35.9644 C   0  0  0  0  0  0  0  0  0  0  0  0
   36.1411  -16.0222   36.7636 N   0  0  0  0  0  0  0  0  0  0  0  0
   37.2036  -16.8424   36.8251 C   0  0  0  0  0  0  0  0  0  0  0  0
   36.9184  -17.9039   36.0558 N   0  0  0  0  0  0  0  0  0  0  0  0
   37.7885  -19.0147   35.8475 C   0  0  0  0  0  0  0  0  0  0  0  0
   37.2435  -20.2274   36.2622 O   0  0  0  0  0  0  0  0  0  0  0  0
   38.3606  -21.0844   36.2566 C   0  0  0  0  0  0  0  0  0  0  0  0
   39.3269  -20.2666   37.1062 C   0  0  0  0  0  0  0  0  0  0  0  0
   40.6195  -20.7141   37.0270 O   0  0  0  0  0  0  0  0  0  0  0  0
   39.1377  -18.8944   36.4708 C   0  0  0  0  0  0  0  0  0  0  0  0
   40.1509  -18.7667   35.5059 O   0  0  0  0  0  0  0  0  0  0  0  0
   41.1145  -20.4053   37.8389 H   0  0  0  0  0  0  0  0  0  0  0  0
   40.6445  -17.9109   35.6274 H   0  0  0  0  0  0  0  0  0  0  0  0
   38.0673  -22.3937   36.8158 C   0  0  0  0  0  0  0  0  0  0  0  0
   38.8979  -22.9742   37.5486 O   0  0  0  0  0  0  0  0  0  0  0  0
   36.8374  -23.0372   36.5428 N   0  0  0  0  0  0  0  0  0  0  0  0
   36.1325  -22.5736   35.9367 H   0  0  0  0  0  0  0  0  0  0  0  0
   36.5187  -24.3474   37.0899 C   0  0  0  0  0  0  0  0  0  0  0  0
   35.6743  -24.2040   38.3118 C   0  0  0  0  0  0  0  0  0  0  0  0
   35.0699  -25.4288   38.6017 O   0  0  0  0  0  0  0  0  0  0  0  0
   34.8853  -25.5265   39.5834 H   0  0  0  0  0  0  0  0  0  0  0  0
   33.4322  -14.8964   36.0167 N   0  0  0  0  0  0  0  0  0  0  0  0
   32.7077  -14.4338   35.4141 H   0  0  0  0  0  0  0  0  0  0  0  0
   33.8491  -14.2596   37.2265 C   0  0  0  0  0  0  0  0  0  0  0  0
   32.1222  -12.5422   38.6849 C   0  0  0  0  0  0  0  0  0  0  0  0
   33.1846  -11.9602   37.8544 C   0  0  0  0  0  0  0  0  0  0  0  0
   33.3274  -10.6080   37.7824 C   0  0  0  0  0  0  0  0  0  0  0  0
   34.3155  -10.0314   37.0113 C   0  0  0  0  0  0  0  0  0  0  0  0
   35.1857  -10.8209   36.2915 C   0  0  0  0  0  0  0  0  0  0  0  0
   35.0129  -12.1936   36.3867 C   0  0  0  0  0  0  0  0  0  0  0  0
   34.0428  -12.8033   37.1430 C   0  0  0  0  0  0  0  0  0  0  0  0
 30 31  1  0  0  0
 31 32  2  0  0  0
 32 33  1  0  0  0
 33 34  2  0  0  0
 34 35  1  0  0  0
 35 36  2  0  0  0
 36 29  1  0  0  0
 29 27  1  0  0  0
 27  1  1  0  0  0
  1  2  2  0  0  0
  2  3  1  0  0  0
  3  4  2  0  0  0
  4  5  1  0  0  0
  5  6  2  0  0  0
  6  7  1  0  0  0
  7  8  2  0  0  0
  8  9  1  0  0  0
  9 10  1  0  0  0
 10 11  1  0  0  0
 11 12  1  0  0  0
 12 19  1  0  0  0
 19 20  2  0  0  0
 19 21  1  0  0  0
 21 23  1  0  0  0
 23 24  1  0  0  0
 24 25  1  0  0  0
 12 13  1  0  0  0
 13 14  1  0  0  0
 13 15  1  0  0  0
 15 16  1  0  0  0
 36 31  1  0  0  0
  6  1  1  0  0  0
 15 10  1  0  0  0
  9  5  1  0  0  0
 27 28  1  0  0  0
 21 22  1  0  0  0
 25 26  1  0  0  0
 14 17  1  0  0  0
 16 18  1  0  0  0
M  END
> <minimizedAffinity>
-6.51500

> <CNNscore>
0.1895526052

> <CNNaffinity>
4.8184804916

> <CNN_VS>
0.9133555293

> <CNNaffinity_variance>
0.4866172671

$$$$
[H]OC([H])([H])C([H])([H])N([H])C(=O)[C@@]1([H])O[C@@]([H])(n2c([H])nc3c(N([H])C([H])([H])c4c([H])c([H])c([H])c([H])c4C([H])([H])[H])nc([H])nc32)[C@]([H])(O[H])[C@]1([H])O[H]


 36 39  0  0  0  0  0  0  0  0999 V2000
   35.2497  -13.7656   36.8689 C   0  0  0  0  0  0  0  0  0  0  0  0
   36.4635  -13.5473   37.4213 N   0  0  0  0  0  0  0  0  0  0  0  0
   37.3522  -14.5327   37.6086 C   0  0  0  0  0  0  0  0  0  0  0  0
   37.0253  -15.7772   37.2351 N   0  0  0  0  0  0  0  0  0  0  0  0
   35.8424  -16.0554   36.6844 C   0  0  0  0  0  0  0  0  0  0  0  0
   34.9359  -15.0576   36.4919 C   0  0  0  0  0  0  0  0  0  0  0  0
   33.8393  -15.5973   35.9276 N   0  0  0  0  0  0  0  0  0  0  0  0
   34.0322  -16.9162   35.7587 C   0  0  0  0  0  0  0  0  0  0  0  0
   35.2603  -17.1907   36.2239 N   0  0  0  0  0  0  0  0  0  0  0  0
   35.8570  -18.4862   36.2301 C   0  0  0  0  0  0  0  0  0  0  0  0
   34.9534  -19.5080   36.5114 O   0  0  0  0  0  0  0  0  0  0  0  0
   35.7992  -20.6033   36.7713 C   0  0  0  0  0  0  0  0  0  0  0  0
   36.7181  -19.9863   37.8197 C   0  0  0  0  0  0  0  0  0  0  0  0
   37.8459  -20.7303   38.0473 O   0  0  0  0  0  0  0  0  0  0  0  0
   37.0180  -18.6499   37.1513 C   0  0  0  0  0  0  0  0  0  0  0  0
   38.2226  -18.8245   36.4498 O   0  0  0  0  0  0  0  0  0  0  0  0
   38.2047  -20.4979   38.9510 H   0  0  0  0  0  0  0  0  0  0  0  0
   38.8694  -18.1037   36.6795 H   0  0  0  0  0  0  0  0  0  0  0  0
   35.0768  -21.7694   37.2523 C   0  0  0  0  0  0  0  0  0  0  0  0
   34.0264  -22.1458   36.6875 O   0  0  0  0  0  0  0  0  0  0  0  0
   35.5468  -22.5016   38.3677 N   0  0  0  0  0  0  0  0  0  0  0  0
   36.4172  -22.2071   38.8524 H   0  0  0  0  0  0  0  0  0  0  0  0
   34.8429  -23.6723   38.8693 C   0  0  0  0  0  0  0  0  0  0  0  0
   34.2364  -23.3777   40.2004 C   0  0  0  0  0  0  0  0  0  0  0  0
   34.4290  -24.4707   41.0476 O   0  0  0  0  0  0  0  0  0  0  0  0
   34.4668  -24.1898   42.0103 H   0  0  0  0  0  0  0  0  0  0  0  0
   34.3174  -12.7088   36.6967 N   0  0  0  0  0  0  0  0  0  0  0  0
   34.3050  -12.2240   35.7657 H   0  0  0  0  0  0  0  0  0  0  0  0
   33.4130  -12.2864   37.7199 C   0  0  0  0  0  0  0  0  0  0  0  0
   30.5973  -11.9374   37.8132 C   0  0  0  0  0  0  0  0  0  0  0  0
   31.4611  -10.7712   37.5872 C   0  0  0  0  0  0  0  0  0  0  0  0
   30.9084   -9.5388   37.4155 C   0  0  0  0  0  0  0  0  0  0  0  0
   31.6932   -8.4244   37.2016 C   0  0  0  0  0  0  0  0  0  0  0  0
   33.0656   -8.5384   37.1569 C   0  0  0  0  0  0  0  0  0  0  0  0
   33.5963   -9.8072   37.3353 C   0  0  0  0  0  0  0  0  0  0  0  0
   32.8483  -10.9382   37.5507 C   0  0  0  0  0  0  0  0  0  0  0  0
 30 31  1  0  0  0
 31 32  2  0  0  0
 32 33  1  0  0  0
 33 34  2  0  0  0
 34 35  1  0  0  0
 35 36  2  0  0  0
 36 29  1  0  0  0
 29 27  1  0  0  0
 27  1  1  0  0  0
  1  2  2  0  0  0
  2  3  1  0  0  0
  3  4  2  0  0  0
  4  5  1  0  0  0
  5  6  2  0  0  0
  6  7  1  0  0  0
  7  8  2  0  0  0
  8  9  1  0  0  0
  9 10  1  0  0  0
 10 11  1  0  0  0
 11 12  1  0  0  0
 12 19  1  0  0  0
 19 20  2  0  0  0
 19 21  1  0  0  0
 21 23  1  0  0  0
 23 24  1  0  0  0
 24 25  1  0  0  0
 12 13  1  0  0  0
 13 14  1  0  0  0
 13 15  1  0  0  0
 15 16  1  0  0  0
 36 31  1  0  0  0
  6  1  1  0  0  0
 15 10  1  0  0  0
  9  5  1  0  0  0
 27 28  1  0  0  0
 21 22  1  0  0  0
 25 26  1  0  0  0
 14 17  1  0  0  0
 16 18  1  0  0  0
M  END
> <minimizedAffinity>
-7.38307

> <CNNscore>
0.1849460006

> <CNNaffinity>
4.9982547760

> <CNN_VS>
0.9244072437

> <CNNaffinity_variance>
0.3916794062

$$$$
[H]c1c([H])c([H])c(S(=O)(=O)c2c([H])c([H])c3c(c2[H])c2c(n3[H])C([H])([H])C([H])([H])C([H])(N([H])[H])C2([H])[H])c([H])c1[H]


 26 29  0  0  0  0  0  0  0  0999 V2000
   42.7570  -18.3248   33.6444 N   0  0  0  0  0  0  0  0  0  0  0  0
   43.0682  -18.5968   35.0455 C   0  0  0  0  0  0  0  0  0  0  0  0
   44.1038  -17.6310   35.4941 C   0  0  0  0  0  0  0  0  0  0  0  0
   43.9934  -17.1842   36.9161 C   0  0  0  0  0  0  0  0  0  0  0  0
   43.1558  -18.0495   37.7642 C   0  0  0  0  0  0  0  0  0  0  0  0
   43.2291  -18.3376   39.0638 N   0  0  0  0  0  0  0  0  0  0  0  0
   42.2523  -19.1744   39.4060 C   0  0  0  0  0  0  0  0  0  0  0  0
   41.8826  -19.7768   40.6144 C   0  0  0  0  0  0  0  0  0  0  0  0
   40.7856  -20.6092   40.5928 C   0  0  0  0  0  0  0  0  0  0  0  0
   40.0598  -20.8649   39.4638 C   0  0  0  0  0  0  0  0  0  0  0  0
   40.4288  -20.2689   38.2772 C   0  0  0  0  0  0  0  0  0  0  0  0
   41.5211  -19.4348   38.2795 C   0  0  0  0  0  0  0  0  0  0  0  0
   42.0880  -18.7286   37.2480 C   0  0  0  0  0  0  0  0  0  0  0  0
   41.7927  -18.5720   35.8060 C   0  0  0  0  0  0  0  0  0  0  0  0
   41.8046  -18.6535   33.4312 H   0  0  0  0  0  0  0  0  0  0  0  0
   43.4984  -18.6844   33.0183 H   0  0  0  0  0  0  0  0  0  0  0  0
   43.9368  -17.9807   39.7584 H   0  0  0  0  0  0  0  0  0  0  0  0
   38.6750  -21.9317   39.4966 S   0  0  0  0  0  0  0  0  0  0  0  0
   37.4377  -21.1065   39.3910 O   0  0  0  0  0  0  0  0  0  0  0  0
   38.6696  -22.6685   40.8036 O   0  0  0  0  0  0  0  0  0  0  0  0
   38.8350  -23.0404   38.1528 C   0  0  0  0  0  0  0  0  0  0  0  0
   39.7237  -24.0833   38.2371 C   0  0  0  0  0  0  0  0  0  0  0  0
   39.9157  -25.0062   37.2259 C   0  0  0  0  0  0  0  0  0  0  0  0
   39.1588  -24.8459   36.0798 C   0  0  0  0  0  0  0  0  0  0  0  0
   38.2534  -23.8020   35.9667 C   0  0  0  0  0  0  0  0  0  0  0  0
   38.1003  -22.9116   37.0009 C   0  0  0  0  0  0  0  0  0  0  0  0
  1  2  1  0  0  0
  2  3  1  0  0  0
  3  4  1  0  0  0
  4  5  1  0  0  0
  5  6  1  0  0  0
  6  7  1  0  0  0
  7  8  2  0  0  0
  8  9  1  0  0  0
  9 10  2  0  0  0
 10 18  1  0  0  0
 18 19  2  0  0  0
 18 20  2  0  0  0
 18 21  1  0  0  0
 21 22  2  0  0  0
 22 23  1  0  0  0
 23 24  2  0  0  0
 24 25  1  0  0  0
 25 26  2  0  0  0
 10 11  1  0  0  0
 11 12  2  0  0  0
 12 13  1  0  0  0
 13 14  1  0  0  0
 14  2  1  0  0  0
 13  5  2  0  0  0
 12  7  1  0  0  0
 26 21  1  0  0  0
  1 15  1  0  0  0
  1 16  1  0  0  0
  6 17  1  0  0  0
M  END
> <minimizedAffinity>
-4.28352

> <CNNscore>
0.6703524590

> <CNNaffinity>
4.6351494789

> <CNN_VS>
3.1071839333

> <CNNaffinity_variance>
0.1168045029

$$$$
[H]c1c([H])c([H])c(S(=O)(=O)c2c([H])c([H])c3c(c2[H])c2c(n3[H])C([H])([H])C([H])([H])C([H])(N([H])[H])C2([H])[H])c([H])c1[H]


 26 29  0  0  0  0  0  0  0  0999 V2000
   39.2015  -19.4977   32.4375 N   0  0  0  0  0  0  0  0  0  0  0  0
   40.1185  -19.6446   33.5651 C   0  0  0  0  0  0  0  0  0  0  0  0
   41.2971  -18.7717   33.3306 C   0  0  0  0  0  0  0  0  0  0  0  0
   41.8941  -18.1549   34.5542 C   0  0  0  0  0  0  0  0  0  0  0  0
   41.5051  -18.8055   35.8171 C   0  0  0  0  0  0  0  0  0  0  0  0
   42.1639  -18.9500   36.9671 N   0  0  0  0  0  0  0  0  0  0  0  0
   41.4162  -19.6129   37.8463 C   0  0  0  0  0  0  0  0  0  0  0  0
   41.6239  -20.0220   39.1689 C   0  0  0  0  0  0  0  0  0  0  0  0
   40.5996  -20.7070   39.7839 C   0  0  0  0  0  0  0  0  0  0  0  0
   39.4148  -20.9970   39.1680 C   0  0  0  0  0  0  0  0  0  0  0  0
   39.2164  -20.5916   37.8658 C   0  0  0  0  0  0  0  0  0  0  0  0
   40.2277  -19.9065   37.2358 C   0  0  0  0  0  0  0  0  0  0  0  0
   40.2828  -19.3997   35.9614 C   0  0  0  0  0  0  0  0  0  0  0  0
   39.3540  -19.3731   34.8092 C   0  0  0  0  0  0  0  0  0  0  0  0
   38.2435  -19.7264   32.7383 H   0  0  0  0  0  0  0  0  0  0  0  0
   39.5394  -20.0168   31.6084 H   0  0  0  0  0  0  0  0  0  0  0  0
   43.1343  -18.6077   37.1948 H   0  0  0  0  0  0  0  0  0  0  0  0
   38.1490  -21.8707   39.9994 S   0  0  0  0  0  0  0  0  0  0  0  0
   37.9733  -21.2756   41.3552 O   0  0  0  0  0  0  0  0  0  0  0  0
   38.5688  -23.3044   40.1379 O   0  0  0  0  0  0  0  0  0  0  0  0
   36.6960  -21.7334   39.0346 C   0  0  0  0  0  0  0  0  0  0  0  0
   35.8986  -20.6236   39.1651 C   0  0  0  0  0  0  0  0  0  0  0  0
   34.7344  -20.4313   38.4447 C   0  0  0  0  0  0  0  0  0  0  0  0
   34.3787  -21.4260   37.5525 C   0  0  0  0  0  0  0  0  0  0  0  0
   35.1648  -22.5578   37.3998 C   0  0  0  0  0  0  0  0  0  0  0  0
   36.3127  -22.7007   38.1400 C   0  0  0  0  0  0  0  0  0  0  0  0
  1  2  1  0  0  0
  2  3  1  0  0  0
  3  4  1  0  0  0
  4  5  1  0  0  0
  5  6  1  0  0  0
  6  7  1  0  0  0
  7  8  2  0  0  0
  8  9  1  0  0  0
  9 10  2  0  0  0
 10 18  1  0  0  0
 18 19  2  0  0  0
 18 20  2  0  0  0
 18 21  1  0  0  0
 21 22  2  0  0  0
 22 23  1  0  0  0
 23 24  2  0  0  0
 24 25  1  0  0  0
 25 26  2  0  0  0
 10 11  1  0  0  0
 11 12  2  0  0  0
 12 13  1  0  0  0
 13 14  1  0  0  0
 14  2  1  0  0  0
 13  5  2  0  0  0
 12  7  1  0  0  0
 26 21  1  0  0  0
  1 15  1  0  0  0
  1 16  1  0  0  0
  6 17  1  0  0  0
M  END
> <minimizedAffinity>
-4.96021

> <CNNscore>
0.6421294212

> <CNNaffinity>
4.5977983475

> <CNN_VS>
2.9523816109

> <CNNaffinity_variance>
0.2766560614

$$$$
[H]c1c([H])c([H])c(S(=O)(=O)c2c([H])c([H])c3c(c2[H])c2c(n3[H])C([H])([H])C([H])([H])C([H])(N([H])[H])C2([H])[H])c([H])c1[H]


 26 29  0  0  0  0  0  0  0  0999 V2000
   42.7006  -18.3846   33.6518 N   0  0  0  0  0  0  0  0  0  0  0  0
   43.0321  -18.5751   35.0616 C   0  0  0  0  0  0  0  0  0  0  0  0
   43.9384  -17.4772   35.4850 C   0  0  0  0  0  0  0  0  0  0  0  0
   43.7634  -17.0056   36.8925 C   0  0  0  0  0  0  0  0  0  0  0  0
   43.0314  -17.9415   37.7629 C   0  0  0  0  0  0  0  0  0  0  0  0
   43.1294  -18.1801   39.0709 N   0  0  0  0  0  0  0  0  0  0  0  0
   42.2597  -19.1198   39.4343 C   0  0  0  0  0  0  0  0  0  0  0  0
   41.9571  -19.7272   40.6588 C   0  0  0  0  0  0  0  0  0  0  0  0
   40.9703  -20.6878   40.6580 C   0  0  0  0  0  0  0  0  0  0  0  0
   40.2898  -21.0635   39.5342 C   0  0  0  0  0  0  0  0  0  0  0  0
   40.5922  -20.4620   38.3317 C   0  0  0  0  0  0  0  0  0  0  0  0
   41.5744  -19.5008   38.3132 C   0  0  0  0  0  0  0  0  0  0  0  0
   42.0585  -18.7612   37.2632 C   0  0  0  0  0  0  0  0  0  0  0  0
   41.7573  -18.6843   35.8160 C   0  0  0  0  0  0  0  0  0  0  0  0
   41.7972  -18.8335   33.4448 H   0  0  0  0  0  0  0  0  0  0  0  0
   43.4852  -18.6691   33.0397 H   0  0  0  0  0  0  0  0  0  0  0  0
   43.7829  -17.7190   39.7572 H   0  0  0  0  0  0  0  0  0  0  0  0
   39.0455  -22.2903   39.5937 S   0  0  0  0  0  0  0  0  0  0  0  0
   39.2578  -23.1230   40.8121 O   0  0  0  0  0  0  0  0  0  0  0  0
   39.1684  -23.1558   38.3742 O   0  0  0  0  0  0  0  0  0  0  0  0
   37.5008  -21.4696   39.6266 C   0  0  0  0  0  0  0  0  0  0  0  0
   37.0578  -20.8143   38.5046 C   0  0  0  0  0  0  0  0  0  0  0  0
   35.8525  -20.1404   38.4402 C   0  0  0  0  0  0  0  0  0  0  0  0
   35.0719  -20.1430   39.5816 C   0  0  0  0  0  0  0  0  0  0  0  0
   35.4938  -20.7965   40.7292 C   0  0  0  0  0  0  0  0  0  0  0  0
   36.7007  -21.4517   40.7412 C   0  0  0  0  0  0  0  0  0  0  0  0
  1  2  1  0  0  0
  2  3  1  0  0  0
  3  4  1  0  0  0
  4  5  1  0  0  0
  5  6  1  0  0  0
  6  7  1  0  0  0
  7  8  2  0  0  0
  8  9  1  0  0  0
  9 10  2  0  0  0
 10 18  1  0  0  0
 18 19  2  0  0  0
 18 20  2  0  0  0
 18 21  1  0  0  0
 21 22  2  0  0  0
 22 23  1  0  0  0
 23 24  2  0  0  0
 24 25  1  0  0  0
 25 26  2  0  0  0
 10 11  1  0  0  0
 11 12  2  0  0  0
 12 13  1  0  0  0
 13 14  1  0  0  0
 14  2  1  0  0  0
 13  5  2  0  0  0
 12  7  1  0  0  0
 26 21  1  0  0  0
  1 15  1  0  0  0
  1 16  1  0  0  0
  6 17  1  0  0  0
M  END
> <minimizedAffinity>
-5.00598

> <CNNscore>
0.6174765229

> <CNNaffinity>
4.5602617264

> <CNN_VS>
2.8158545494

> <CNNaffinity_variance>
0.2239590138

$$$$
[H]c1c([H])c([H])c(S(=O)(=O)c2c([H])c([H])c3c(c2[H])c2c(n3[H])C([H])([H])C([H])([H])C([H])(N([H])[H])C2([H])[H])c([H])c1[H]


 26 29  0  0  0  0  0  0  0  0999 V2000
   33.0820  -19.6609   35.1245 N   0  0  0  0  0  0  0  0  0  0  0  0
   34.1002  -18.7319   35.6084 C   0  0  0  0  0  0  0  0  0  0  0  0
   35.4070  -19.1143   35.0148 C   0  0  0  0  0  0  0  0  0  0  0  0
   36.3257  -17.9790   34.6972 C   0  0  0  0  0  0  0  0  0  0  0  0
   35.9921  -16.7156   35.3770 C   0  0  0  0  0  0  0  0  0  0  0  0
   36.7678  -15.7175   35.8006 N   0  0  0  0  0  0  0  0  0  0  0  0
   36.0276  -14.7663   36.3651 C   0  0  0  0  0  0  0  0  0  0  0  0
   36.3336  -13.5356   36.9581 C   0  0  0  0  0  0  0  0  0  0  0  0
   35.2817  -12.7949   37.4493 C   0  0  0  0  0  0  0  0  0  0  0  0
   33.9797  -13.2043   37.3824 C   0  0  0  0  0  0  0  0  0  0  0  0
   33.6848  -14.4168   36.7974 C   0  0  0  0  0  0  0  0  0  0  0  0
   34.7220  -15.1699   36.3014 C   0  0  0  0  0  0  0  0  0  0  0  0
   34.6990  -16.3940   35.6810 C   0  0  0  0  0  0  0  0  0  0  0  0
   33.6355  -17.3536   35.3077 C   0  0  0  0  0  0  0  0  0  0  0  0
   32.1576  -19.2081   35.1551 H   0  0  0  0  0  0  0  0  0  0  0  0
   33.1432  -20.5722   35.6112 H   0  0  0  0  0  0  0  0  0  0  0  0
   37.8164  -15.6462   35.7230 H   0  0  0  0  0  0  0  0  0  0  0  0
   32.6843  -12.2206   38.0236 S   0  0  0  0  0  0  0  0  0  0  0  0
   32.7021  -12.3233   39.5109 O   0  0  0  0  0  0  0  0  0  0  0  0
   31.3798  -12.7508   37.5056 O   0  0  0  0  0  0  0  0  0  0  0  0
   32.9537  -10.5795   37.4807 C   0  0  0  0  0  0  0  0  0  0  0  0
   34.2019  -10.2052   37.0487 C   0  0  0  0  0  0  0  0  0  0  0  0
   34.5054   -8.9322   36.6031 C   0  0  0  0  0  0  0  0  0  0  0  0
   33.4777   -8.0071   36.6035 C   0  0  0  0  0  0  0  0  0  0  0  0
   32.2071   -8.3569   37.0341 C   0  0  0  0  0  0  0  0  0  0  0  0
   31.9576   -9.6358   37.4675 C   0  0  0  0  0  0  0  0  0  0  0  0
  1  2  1  0  0  0
  2  3  1  0  0  0
  3  4  1  0  0  0
  4  5  1  0  0  0
  5  6  1  0  0  0
  6  7  1  0  0  0
  7  8  2  0  0  0
  8  9  1  0  0  0
  9 10  2  0  0  0
 10 18  1  0  0  0
 18 19  2  0  0  0
 18 20  2  0  0  0
 18 21  1  0  0  0
 21 22  2  0  0  0
 22 23  1  0  0  0
 23 24  2  0  0  0
 24 25  1  0  0  0
 25 26  2  0  0  0
 10 11  1  0  0  0
 11 12  2  0  0  0
 12 13  1  0  0  0
 13 14  1  0  0  0
 14  2  1  0  0  0
 13  5  2  0  0  0
 12  7  1  0  0  0
 26 21  1  0  0  0
  1 15  1  0  0  0
  1 16  1  0  0  0
  6 17  1  0  0  0
M  END
> <minimizedAffinity>
-8.94562

> <CNNscore>
0.6018850803

> <CNNaffinity>
5.7817430496

> <CNN_VS>
3.4799449444

> <CNNaffinity_variance>
0.2839180529

$$$$
[H]c1c([H])c([H])c(S(=O)(=O)c2c([H])c([H])c3c(c2[H])c2c(n3[H])C([H])([H])C([H])([H])C([H])(N([H])[H])C2([H])[H])c([H])c1[H]


 26 29  0  0  0  0  0  0  0  0999 V2000
   41.6089  -18.7834   32.9113 N   0  0  0  0  0  0  0  0  0  0  0  0
   42.3819  -18.7337   34.1497 C   0  0  0  0  0  0  0  0  0  0  0  0
   43.3561  -17.6167   34.0524 C   0  0  0  0  0  0  0  0  0  0  0  0
   43.6371  -16.8954   35.3310 C   0  0  0  0  0  0  0  0  0  0  0  0
   43.2434  -17.6302   36.5453 C   0  0  0  0  0  0  0  0  0  0  0  0
   43.7635  -17.6363   37.7727 N   0  0  0  0  0  0  0  0  0  0  0  0
   43.0756  -18.4592   38.5607 C   0  0  0  0  0  0  0  0  0  0  0  0
   43.1966  -18.8259   39.9064 C   0  0  0  0  0  0  0  0  0  0  0  0
   42.2804  -19.7295   40.3972 C   0  0  0  0  0  0  0  0  0  0  0  0
   41.2801  -20.2704   39.6398 C   0  0  0  0  0  0  0  0  0  0  0  0
   41.1661  -19.9055   38.3157 C   0  0  0  0  0  0  0  0  0  0  0  0
   42.0716  -19.0047   37.8082 C   0  0  0  0  0  0  0  0  0  0  0  0
   42.1764  -18.4844   36.5424 C   0  0  0  0  0  0  0  0  0  0  0  0
   41.4220  -18.6538   35.2802 C   0  0  0  0  0  0  0  0  0  0  0  0
   40.6955  -19.2240   33.0907 H   0  0  0  0  0  0  0  0  0  0  0  0
   42.1584  -19.2046   32.1421 H   0  0  0  0  0  0  0  0  0  0  0  0
   44.5952  -17.0881   38.1168 H   0  0  0  0  0  0  0  0  0  0  0  0
   40.1447  -21.4142   40.3177 S   0  0  0  0  0  0  0  0  0  0  0  0
   39.5194  -20.8030   41.5254 O   0  0  0  0  0  0  0  0  0  0  0  0
   40.8936  -22.6508   40.7192 O   0  0  0  0  0  0  0  0  0  0  0  0
   38.9599  -21.7727   39.0815 C   0  0  0  0  0  0  0  0  0  0  0  0
   37.8040  -21.0348   39.0167 C   0  0  0  0  0  0  0  0  0  0  0  0
   36.8144  -21.2476   38.0751 C   0  0  0  0  0  0  0  0  0  0  0  0
   37.0268  -22.2645   37.1624 C   0  0  0  0  0  0  0  0  0  0  0  0
   38.1847  -23.0259   37.2039 C   0  0  0  0  0  0  0  0  0  0  0  0
   39.1376  -22.7739   38.1601 C   0  0  0  0  0  0  0  0  0  0  0  0
  1  2  1  0  0  0
  2  3  1  0  0  0
  3  4  1  0  0  0
  4  5  1  0  0  0
  5  6  1  0  0  0
  6  7  1  0  0  0
  7  8  2  0  0  0
  8  9  1  0  0  0
  9 10  2  0  0  0
 10 18  1  0  0  0
 18 19  2  0  0  0
 18 20  2  0  0  0
 18 21  1  0  0  0
 21 22  2  0  0  0
 22 23  1  0  0  0
 23 24  2  0  0  0
 24 25  1  0  0  0
 25 26  2  0  0  0
 10 11  1  0  0  0
 11 12  2  0  0  0
 12 13  1  0  0  0
 13 14  1  0  0  0
 14  2  1  0  0  0
 13  5  2  0  0  0
 12  7  1  0  0  0
 26 21  1  0  0  0
  1 15  1  0  0  0
  1 16  1  0  0  0
  6 17  1  0  0  0
M  END
> <minimizedAffinity>
-4.64606

> <CNNscore>
0.5864278078

> <CNNaffinity>
4.5100426674

> <CNN_VS>
2.6448144913

> <CNNaffinity_variance>
0.2255680263

$$$$
[H]c1c([H])c([H])c(S(=O)(=O)c2c([H])c([H])c3c(c2[H])c2c(n3[H])C([H])([H])C([H])([H])C([H])(N([H])[H])C2([H])[H])c([H])c1[H]


 26 29  0  0  0  0  0  0  0  0999 V2000
   43.2604  -18.0553   33.9036 N   0  0  0  0  0  0  0  0  0  0  0  0
   43.1029  -18.8337   35.1297 C   0  0  0  0  0  0  0  0  0  0  0  0
   44.2897  -18.5999   35.9917 C   0  0  0  0  0  0  0  0  0  0  0  0
   44.0239  -18.5887   37.4625 C   0  0  0  0  0  0  0  0  0  0  0  0
   42.7449  -19.2041   37.8560 C   0  0  0  0  0  0  0  0  0  0  0  0
   42.3926  -19.8618   38.9608 N   0  0  0  0  0  0  0  0  0  0  0  0
   41.1199  -20.2438   38.8838 C   0  0  0  0  0  0  0  0  0  0  0  0
   40.2737  -20.9471   39.7493 C   0  0  0  0  0  0  0  0  0  0  0  0
   38.9816  -21.1658   39.3260 C   0  0  0  0  0  0  0  0  0  0  0  0
   38.5031  -20.7332   38.1214 C   0  0  0  0  0  0  0  0  0  0  0  0
   39.3411  -20.0413   37.2737 C   0  0  0  0  0  0  0  0  0  0  0  0
   40.6343  -19.8136   37.6793 C   0  0  0  0  0  0  0  0  0  0  0  0
   41.6543  -19.1606   37.0334 C   0  0  0  0  0  0  0  0  0  0  0  0
   41.7919  -18.4752   35.7286 C   0  0  0  0  0  0  0  0  0  0  0  0
   42.3345  -17.8536   33.5002 H   0  0  0  0  0  0  0  0  0  0  0  0
   43.9347  -18.5029   33.2585 H   0  0  0  0  0  0  0  0  0  0  0  0
   42.9964  -20.0732   39.7984 H   0  0  0  0  0  0  0  0  0  0  0  0
   36.8516  -21.0404   37.6368 S   0  0  0  0  0  0  0  0  0  0  0  0
   36.4871  -20.0790   36.5572 O   0  0  0  0  0  0  0  0  0  0  0  0
   35.9567  -20.8192   38.8207 O   0  0  0  0  0  0  0  0  0  0  0  0
   36.7659  -22.6994   37.0879 C   0  0  0  0  0  0  0  0  0  0  0  0
   35.5798  -23.3840   37.1830 C   0  0  0  0  0  0  0  0  0  0  0  0
   35.4205  -24.6952   36.7748 C   0  0  0  0  0  0  0  0  0  0  0  0
   36.5318  -25.3259   36.2464 C   0  0  0  0  0  0  0  0  0  0  0  0
   37.7426  -24.6592   36.1382 C   0  0  0  0  0  0  0  0  0  0  0  0
   37.8483  -23.3562   36.5586 C   0  0  0  0  0  0  0  0  0  0  0  0
  1  2  1  0  0  0
  2  3  1  0  0  0
  3  4  1  0  0  0
  4  5  1  0  0  0
  5  6  1  0  0  0
  6  7  1  0  0  0
  7  8  2  0  0  0
  8  9  1  0  0  0
  9 10  2  0  0  0
 10 18  1  0  0  0
 18 19  2  0  0  0
 18 20  2  0  0  0
 18 21  1  0  0  0
 21 22  2  0  0  0
 22 23  1  0  0  0
 23 24  2  0  0  0
 24 25  1  0  0  0
 25 26  2  0  0  0
 10 11  1  0  0  0
 11 12  2  0  0  0
 12 13  1  0  0  0
 13 14  1  0  0  0
 14  2  1  0  0  0
 13  5  2  0  0  0
 12  7  1  0  0  0
 26 21  1  0  0  0
  1 15  1  0  0  0
  1 16  1  0  0  0
  6 17  1  0  0  0
M  END
> <minimizedAffinity>
-4.19118

> <CNNscore>
0.5803330541

> <CNNaffinity>
4.8323044777

> <CNN_VS>
2.8043460846

> <CNNaffinity_variance>
0.0492399745

$$$$
[H]c1c([H])c([H])c(S(=O)(=O)c2c([H])c([H])c3c(c2[H])c2c(n3[H])C([H])([H])C([H])([H])C([H])(N([H])[H])C2([H])[H])c([H])c1[H]


 26 29  0  0  0  0  0  0  0  0999 V2000
   37.9331  -13.5123   38.1562 N   0  0  0  0  0  0  0  0  0  0  0  0
   36.6744  -14.1386   37.7597 C   0  0  0  0  0  0  0  0  0  0  0  0
   35.9262  -13.1880   36.8980 C   0  0  0  0  0  0  0  0  0  0  0  0
   35.1216  -13.8096   35.8024 C   0  0  0  0  0  0  0  0  0  0  0  0
   34.8573  -15.2476   35.9802 C   0  0  0  0  0  0  0  0  0  0  0  0
   33.8235  -16.0012   35.6050 N   0  0  0  0  0  0  0  0  0  0  0  0
   34.0131  -17.2638   35.9809 C   0  0  0  0  0  0  0  0  0  0  0  0
   33.2548  -18.4322   35.8407 C   0  0  0  0  0  0  0  0  0  0  0  0
   33.7801  -19.5904   36.3691 C   0  0  0  0  0  0  0  0  0  0  0  0
   34.9853  -19.6434   37.0108 C   0  0  0  0  0  0  0  0  0  0  0  0
   35.7271  -18.4897   37.1457 C   0  0  0  0  0  0  0  0  0  0  0  0
   35.2188  -17.3240   36.6244 C   0  0  0  0  0  0  0  0  0  0  0  0
   35.7496  -16.0582   36.6243 C   0  0  0  0  0  0  0  0  0  0  0  0
   36.9960  -15.4506   37.1422 C   0  0  0  0  0  0  0  0  0  0  0  0
   38.6287  -14.2400   38.3733 H   0  0  0  0  0  0  0  0  0  0  0  0
   37.7844  -12.8083   38.9001 H   0  0  0  0  0  0  0  0  0  0  0  0
   32.9610  -15.6895   35.0857 H   0  0  0  0  0  0  0  0  0  0  0  0
   35.6021  -21.1440   37.6623 S   0  0  0  0  0  0  0  0  0  0  0  0
   36.1777  -20.8748   39.0111 O   0  0  0  0  0  0  0  0  0  0  0  0
   36.6834  -21.6511   36.7541 O   0  0  0  0  0  0  0  0  0  0  0  0
   34.2667  -22.2716   37.7373 C   0  0  0  0  0  0  0  0  0  0  0  0
   33.3672  -22.1886   38.7711 C   0  0  0  0  0  0  0  0  0  0  0  0
   32.2840  -23.0362   38.9102 C   0  0  0  0  0  0  0  0  0  0  0  0
   32.1225  -24.0100   37.9419 C   0  0  0  0  0  0  0  0  0  0  0  0
   33.0152  -24.1174   36.8865 C   0  0  0  0  0  0  0  0  0  0  0  0
   34.0758  -23.2500   36.7942 C   0  0  0  0  0  0  0  0  0  0  0  0
  1  2  1  0  0  0
  2  3  1  0  0  0
  3  4  1  0  0  0
  4  5  1  0  0  0
  5  6  1  0  0  0
  6  7  1  0  0  0
  7  8  2  0  0  0
  8  9  1  0  0  0
  9 10  2  0  0  0
 10 18  1  0  0  0
 18 19  2  0  0  0
 18 20  2  0  0  0
 18 21  1  0  0  0
 21 22  2  0  0  0
 22 23  1  0  0  0
 23 24  2  0  0  0
 24 25  1  0  0  0
 25 26  2  0  0  0
 10 11  1  0  0  0
 11 12  2  0  0  0
 12 13  1  0  0  0
 13 14  1  0  0  0
 14  2  1  0  0  0
 13  5  2  0  0  0
 12  7  1  0  0  0
 26 21  1  0  0  0
  1 15  1  0  0  0
  1 16  1  0  0  0
  6 17  1  0  0  0
M  END
> <minimizedAffinity>
-5.83547

> <CNNscore>
0.5020049214

> <CNNaffinity>
4.9305968285

> <CNN_VS>
2.4751839638

> <CNNaffinity_variance>
0.2827576995

$$$$
[H]c1c([H])c([H])c(S(=O)(=O)c2c([H])c([H])c3c(c2[H])c2c(n3[H])C([H])([H])C([H])([H])C([H])(N([H])[H])C2([H])[H])c([H])c1[H]


 26 29  0  0  0  0  0  0  0  0999 V2000
   37.0640  -19.7900   37.7754 N   0  0  0  0  0  0  0  0  0  0  0  0
   35.7743  -19.1981   37.4291 C   0  0  0  0  0  0  0  0  0  0  0  0
   36.0047  -17.8074   36.9610 C   0  0  0  0  0  0  0  0  0  0  0  0
   35.0890  -17.3331   35.8791 C   0  0  0  0  0  0  0  0  0  0  0  0
   33.8619  -18.1329   35.7242 C   0  0  0  0  0  0  0  0  0  0  0  0
   32.6354  -17.7881   35.3317 N   0  0  0  0  0  0  0  0  0  0  0  0
   31.8329  -18.8499   35.3415 C   0  0  0  0  0  0  0  0  0  0  0  0
   30.4816  -19.0360   35.0263 C   0  0  0  0  0  0  0  0  0  0  0  0
   29.9746  -20.3097   35.1573 C   0  0  0  0  0  0  0  0  0  0  0  0
   30.7213  -21.3756   35.5735 C   0  0  0  0  0  0  0  0  0  0  0  0
   32.0511  -21.1860   35.8823 C   0  0  0  0  0  0  0  0  0  0  0  0
   32.5747  -19.9215   35.7575 C   0  0  0  0  0  0  0  0  0  0  0  0
   33.8490  -19.4719   35.9980 C   0  0  0  0  0  0  0  0  0  0  0  0
   35.1073  -20.1019   36.4574 C   0  0  0  0  0  0  0  0  0  0  0  0
   37.0081  -20.8150   37.6922 H   0  0  0  0  0  0  0  0  0  0  0  0
   37.4055  -19.4394   38.6873 H   0  0  0  0  0  0  0  0  0  0  0  0
   32.3017  -16.8301   35.0460 H   0  0  0  0  0  0  0  0  0  0  0  0
   30.0228  -22.9716   35.7211 S   0  0  0  0  0  0  0  0  0  0  0  0
   30.5349  -23.8187   34.6061 O   0  0  0  0  0  0  0  0  0  0  0  0
   28.5313  -22.8531   35.6093 O   0  0  0  0  0  0  0  0  0  0  0  0
   30.4857  -23.6041   37.2852 C   0  0  0  0  0  0  0  0  0  0  0  0
   31.4139  -24.6128   37.3603 C   0  0  0  0  0  0  0  0  0  0  0  0
   31.8385  -25.1723   38.5510 C   0  0  0  0  0  0  0  0  0  0  0  0
   31.2816  -24.6697   39.7127 C   0  0  0  0  0  0  0  0  0  0  0  0
   30.3421  -23.6512   39.6672 C   0  0  0  0  0  0  0  0  0  0  0  0
   29.9539  -23.1294   38.4577 C   0  0  0  0  0  0  0  0  0  0  0  0
  1  2  1  0  0  0
  2  3  1  0  0  0
  3  4  1  0  0  0
  4  5  1  0  0  0
  5  6  1  0  0  0
  6  7  1  0  0  0
  7  8  2  0  0  0
  8  9  1  0  0  0
  9 10  2  0  0  0
 10 18  1  0  0  0
 18 19  2  0  0  0
 18 20  2  0  0  0
 18 21  1  0  0  0
 21 22  2  0  0  0
 22 23  1  0  0  0
 23 24  2  0  0  0
 24 25  1  0  0  0
 25 26  2  0  0  0
 10 11  1  0  0  0
 11 12  2  0  0  0
 12 13  1  0  0  0
 13 14  1  0  0  0
 14  2  1  0  0  0
 13  5  2  0  0  0
 12  7  1  0  0  0
 26 21  1  0  0  0
  1 15  1  0  0  0
  1 16  1  0  0  0
  6 17  1  0  0  0
M  END
> <minimizedAffinity>
-5.20289

> <CNNscore>
0.4977557361

> <CNNaffinity>
4.3522148132

> <CNN_VS>
2.1663398743

> <CNNaffinity_variance>
0.5153897405

$$$$
[H]c1c([H])c([H])c(S(=O)(=O)c2c([H])c([H])c3c(c2[H])c2c(n3[H])C([H])([H])C([H])([H])C([H])(N([H])[H])C2([H])[H])c([H])c1[H]


 26 29  0  0  0  0  0  0  0  0999 V2000
   39.1644  -19.5050   32.4643 N   0  0  0  0  0  0  0  0  0  0  0  0
   39.2927  -20.0551   33.8114 C   0  0  0  0  0  0  0  0  0  0  0  0
   40.6610  -19.7642   34.3107 C   0  0  0  0  0  0  0  0  0  0  0  0
   40.7659  -19.4895   35.7761 C   0  0  0  0  0  0  0  0  0  0  0  0
   39.6070  -19.9399   36.5658 C   0  0  0  0  0  0  0  0  0  0  0  0
   39.5200  -20.3780   37.8219 N   0  0  0  0  0  0  0  0  0  0  0  0
   38.2576  -20.6777   38.1189 C   0  0  0  0  0  0  0  0  0  0  0  0
   37.6319  -21.1661   39.2720 C   0  0  0  0  0  0  0  0  0  0  0  0
   36.2699  -21.3616   39.2140 C   0  0  0  0  0  0  0  0  0  0  0  0
   35.5215  -21.1037   38.1003 C   0  0  0  0  0  0  0  0  0  0  0  0
   36.1433  -20.6229   36.9682 C   0  0  0  0  0  0  0  0  0  0  0  0
   37.5023  -20.4215   37.0074 C   0  0  0  0  0  0  0  0  0  0  0  0
   38.3491  -19.9581   36.0317 C   0  0  0  0  0  0  0  0  0  0  0  0
   38.1797  -19.5112   34.6307 C   0  0  0  0  0  0  0  0  0  0  0  0
   38.1736  -19.3092   32.2631 H   0  0  0  0  0  0  0  0  0  0  0  0
   39.6468  -20.0998   31.7682 H   0  0  0  0  0  0  0  0  0  0  0  0
   40.3054  -20.4884   38.5159 H   0  0  0  0  0  0  0  0  0  0  0  0
   33.7938  -21.3714   38.0850 S   0  0  0  0  0  0  0  0  0  0  0  0
   33.1491  -20.2666   37.3189 O   0  0  0  0  0  0  0  0  0  0  0  0
   33.2941  -21.3511   39.4996 O   0  0  0  0  0  0  0  0  0  0  0  0
   33.5111  -22.9301   37.3428 C   0  0  0  0  0  0  0  0  0  0  0  0
   34.4557  -23.9190   37.4628 C   0  0  0  0  0  0  0  0  0  0  0  0
   34.3169  -25.1785   36.9101 C   0  0  0  0  0  0  0  0  0  0  0  0
   33.1544  -25.4276   36.2040 C   0  0  0  0  0  0  0  0  0  0  0  0
   32.1829  -24.4480   36.0664 C   0  0  0  0  0  0  0  0  0  0  0  0
   32.3696  -23.2121   36.6352 C   0  0  0  0  0  0  0  0  0  0  0  0
  1  2  1  0  0  0
  2  3  1  0  0  0
  3  4  1  0  0  0
  4  5  1  0  0  0
  5  6  1  0  0  0
  6  7  1  0  0  0
  7  8  2  0  0  0
  8  9  1  0  0  0
  9 10  2  0  0  0
 10 18  1  0  0  0
 18 19  2  0  0  0
 18 20  2  0  0  0
 18 21  1  0  0  0
 21 22  2  0  0  0
 22 23  1  0  0  0
 23 24  2  0  0  0
 24 25  1  0  0  0
 25 26  2  0  0  0
 10 11  1  0  0  0
 11 12  2  0  0  0
 12 13  1  0  0  0
 13 14  1  0  0  0
 14  2  1  0  0  0
 13  5  2  0  0  0
 12  7  1  0  0  0
 26 21  1  0  0  0
  1 15  1  0  0  0
  1 16  1  0  0  0
  6 17  1  0  0  0
M  END
> <minimizedAffinity>
-4.72821

> <CNNscore>
0.4905607700

> <CNNaffinity>
4.6594972610

> <CNN_VS>
2.2857666016

> <CNNaffinity_variance>
0.0407430232

$$$$
[H]c1c([H])c(OC([H])([H])[H])c2c(c1[H])[C@]([H])(C([H])([H])N(C([H])([H])[H])C([H])([H])C([H])([H])c1c([H])c([H])c3c(c1[H])C([H])([H])N(S(=O)(=O)C([H])([H])[H])C3([H])[H])C([H])([H])C([H])([H])C2([H])[H]


 30 33  0  0  0  0  0  0  0  0999 V2000
   36.9066  -14.3074   37.0764 N   0  0  0  0  0  0  0  0  0  0  0  0
   38.0050  -13.6074   37.5791 C   0  0  0  0  0  0  0  0  0  0  0  0
   35.9579  -13.7108   36.2668 C   0  0  0  0  0  0  0  0  0  0  0  0
   33.6080   -9.4946   37.1390 C   0  0  0  0  0  0  0  0  0  0  0  0
   34.5224   -8.8277   36.3341 C   0  0  0  0  0  0  0  0  0  0  0  0
   35.5401   -9.5747   35.7366 C   0  0  0  0  0  0  0  0  0  0  0  0
   35.6658  -10.9432   35.9176 C   0  0  0  0  0  0  0  0  0  0  0  0
   34.7539  -11.6061   36.7204 C   0  0  0  0  0  0  0  0  0  0  0  0
   33.7650  -10.8527   37.2950 C   0  0  0  0  0  0  0  0  0  0  0  0
   32.7934  -11.6515   38.1315 C   0  0  0  0  0  0  0  0  0  0  0  0
   32.3392  -12.8061   37.2486 C   0  0  0  0  0  0  0  0  0  0  0  0
   33.5011  -13.7024   36.8879 C   0  0  0  0  0  0  0  0  0  0  0  0
   34.8281  -13.0536   37.0015 C   0  0  0  0  0  0  0  0  0  0  0  0
   31.2236   -8.8918   37.3011 C   0  0  0  0  0  0  0  0  0  0  0  0
   32.5499   -8.8343   37.7841 O   0  0  0  0  0  0  0  0  0  0  0  0
   36.6837  -15.6315   37.5256 C   0  0  0  0  0  0  0  0  0  0  0  0
   37.4227  -16.7261   36.8313 C   0  0  0  0  0  0  0  0  0  0  0  0
   36.4910  -17.5395   35.9678 C   0  0  0  0  0  0  0  0  0  0  0  0
   36.9183  -18.4184   35.0021 C   0  0  0  0  0  0  0  0  0  0  0  0
   36.0514  -19.1379   34.2154 C   0  0  0  0  0  0  0  0  0  0  0  0
   34.6733  -19.0053   34.3653 C   0  0  0  0  0  0  0  0  0  0  0  0
   34.2395  -18.1363   35.3201 C   0  0  0  0  0  0  0  0  0  0  0  0
   35.1257  -17.4036   36.1221 C   0  0  0  0  0  0  0  0  0  0  0  0
   32.7522  -18.1232   35.3279 C   0  0  0  0  0  0  0  0  0  0  0  0
   32.3865  -19.1827   34.4435 N   0  0  0  0  0  0  0  0  0  0  0  0
   33.5157  -19.6230   33.6960 C   0  0  0  0  0  0  0  0  0  0  0  0
   31.7357  -20.5441   35.2833 S   0  0  0  0  0  0  0  0  0  0  0  0
   29.9801  -20.4158   35.4715 C   0  0  0  0  0  0  0  0  0  0  0  0
   32.1027  -21.7707   34.4985 O   0  0  0  0  0  0  0  0  0  0  0  0
   32.4292  -20.6823   36.6200 O   0  0  0  0  0  0  0  0  0  0  0  0
 14 15  1  0  0  0
 15  4  1  0  0  0
  4  5  2  0  0  0
  5  6  1  0  0  0
  6  7  2  0  0  0
  7  8  1  0  0  0
  8  9  2  0  0  0
  9 10  1  0  0  0
 10 11  1  0  0  0
 11 12  1  0  0  0
 12 13  1  0  0  0
 13  3  1  0  0  0
  3  1  1  0  0  0
  1  2  1  0  0  0
  1 16  1  0  0  0
 16 17  1  0  0  0
 17 18  1  0  0  0
 18 19  2  0  0  0
 19 20  1  0  0  0
 20 21  2  0  0  0
 21 22  1  0  0  0
 22 23  2  0  0  0
 22 24  1  0  0  0
 24 25  1  0  0  0
 25 27  1  0  0  0
 27 28  1  0  0  0
 27 29  2  0  0  0
 27 30  2  0  0  0
 25 26  1  0  0  0
  9  4  1  0  0  0
 23 18  1  0  0  0
 13  8  1  0  0  0
 26 21  1  0  0  0
M  END
> <minimizedAffinity>
-8.24780

> <CNNscore>
0.5757830739

> <CNNaffinity>
6.5627350807

> <CNN_VS>
3.7787117958

> <CNNaffinity_variance>
0.0677550733

$$$$
[H]c1c([H])c(OC([H])([H])[H])c2c(c1[H])[C@]([H])(C([H])([H])N(C([H])([H])[H])C([H])([H])C([H])([H])c1c([H])c([H])c3c(c1[H])C([H])([H])N(S(=O)(=O)C([H])([H])[H])C3([H])[H])C([H])([H])C([H])([H])C2([H])[H]


 30 33  0  0  0  0  0  0  0  0999 V2000
   37.0760  -14.1825   36.9676 N   0  0  0  0  0  0  0  0  0  0  0  0
   38.0900  -13.4770   37.6184 C   0  0  0  0  0  0  0  0  0  0  0  0
   36.1343  -13.5569   36.1718 C   0  0  0  0  0  0  0  0  0  0  0  0
   33.5958   -9.4666   37.1125 C   0  0  0  0  0  0  0  0  0  0  0  0
   34.4792   -8.7456   36.3196 C   0  0  0  0  0  0  0  0  0  0  0  0
   35.5296   -9.4357   35.7105 C   0  0  0  0  0  0  0  0  0  0  0  0
   35.7173  -10.7999   35.8687 C   0  0  0  0  0  0  0  0  0  0  0  0
   34.8363  -11.5167   36.6595 C   0  0  0  0  0  0  0  0  0  0  0  0
   33.8142  -10.8187   37.2459 C   0  0  0  0  0  0  0  0  0  0  0  0
   32.8798  -11.6745   38.0682 C   0  0  0  0  0  0  0  0  0  0  0  0
   32.4784  -12.8335   37.1658 C   0  0  0  0  0  0  0  0  0  0  0  0
   33.6797  -13.6702   36.7911 C   0  0  0  0  0  0  0  0  0  0  0  0
   34.9759  -12.9639   36.9165 C   0  0  0  0  0  0  0  0  0  0  0  0
   31.1803   -9.0196   37.3130 C   0  0  0  0  0  0  0  0  0  0  0  0
   32.5089   -8.8658   37.7677 O   0  0  0  0  0  0  0  0  0  0  0  0
   36.9247  -15.5624   37.2458 C   0  0  0  0  0  0  0  0  0  0  0  0
   36.1485  -16.3793   36.2676 C   0  0  0  0  0  0  0  0  0  0  0  0
   36.1174  -17.8289   36.6837 C   0  0  0  0  0  0  0  0  0  0  0  0
   37.2355  -18.5462   37.0340 C   0  0  0  0  0  0  0  0  0  0  0  0
   37.1863  -19.8711   37.3947 C   0  0  0  0  0  0  0  0  0  0  0  0
   35.9760  -20.5595   37.4216 C   0  0  0  0  0  0  0  0  0  0  0  0
   34.8615  -19.8572   37.0758 C   0  0  0  0  0  0  0  0  0  0  0  0
   34.9139  -18.5052   36.7087 C   0  0  0  0  0  0  0  0  0  0  0  0
   33.6766  -20.7527   37.1556 C   0  0  0  0  0  0  0  0  0  0  0  0
   34.1795  -21.9492   37.7506 N   0  0  0  0  0  0  0  0  0  0  0  0
   35.6034  -21.9442   37.7583 C   0  0  0  0  0  0  0  0  0  0  0  0
   33.6355  -22.1527   39.3769 S   0  0  0  0  0  0  0  0  0  0  0  0
   34.5859  -23.3760   40.2339 C   0  0  0  0  0  0  0  0  0  0  0  0
   33.7440  -20.8173   40.0551 O   0  0  0  0  0  0  0  0  0  0  0  0
   32.1632  -22.4976   39.3697 O   0  0  0  0  0  0  0  0  0  0  0  0
 14 15  1  0  0  0
 15  4  1  0  0  0
  4  5  2  0  0  0
  5  6  1  0  0  0
  6  7  2  0  0  0
  7  8  1  0  0  0
  8  9  2  0  0  0
  9 10  1  0  0  0
 10 11  1  0  0  0
 11 12  1  0  0  0
 12 13  1  0  0  0
 13  3  1  0  0  0
  3  1  1  0  0  0
  1  2  1  0  0  0
  1 16  1  0  0  0
 16 17  1  0  0  0
 17 18  1  0  0  0
 18 19  2  0  0  0
 19 20  1  0  0  0
 20 21  2  0  0  0
 21 22  1  0  0  0
 22 23  2  0  0  0
 22 24  1  0  0  0
 24 25  1  0  0  0
 25 27  1  0  0  0
 27 28  1  0  0  0
 27 29  2  0  0  0
 27 30  2  0  0  0
 25 26  1  0  0  0
  9  4  1  0  0  0
 23 18  1  0  0  0
 13  8  1  0  0  0
 26 21  1  0  0  0
M  END
> <minimizedAffinity>
-7.55509

> <CNNscore>
0.5283480287

> <CNNaffinity>
6.3661127090

> <CNN_VS>
3.3635230064

> <CNNaffinity_variance>
0.0310634486

$$$$
[H]c1c([H])c(OC([H])([H])[H])c2c(c1[H])[C@]([H])(C([H])([H])N(C([H])([H])[H])C([H])([H])C([H])([H])c1c([H])c([H])c3c(c1[H])C([H])([H])N(S(=O)(=O)C([H])([H])[H])C3([H])[H])C([H])([H])C([H])([H])C2([H])[H]


 30 33  0  0  0  0  0  0  0  0999 V2000
   32.7382  -19.6988   34.9318 N   0  0  0  0  0  0  0  0  0  0  0  0
   31.6634  -19.2061   35.6743 C   0  0  0  0  0  0  0  0  0  0  0  0
   33.7003  -18.8698   34.3853 C   0  0  0  0  0  0  0  0  0  0  0  0
   35.7633  -15.3863   37.1545 C   0  0  0  0  0  0  0  0  0  0  0  0
   34.7818  -14.4922   36.7468 C   0  0  0  0  0  0  0  0  0  0  0  0
   33.8028  -14.9490   35.8616 C   0  0  0  0  0  0  0  0  0  0  0  0
   33.7782  -16.2495   35.3826 C   0  0  0  0  0  0  0  0  0  0  0  0
   34.7574  -17.1389   35.7895 C   0  0  0  0  0  0  0  0  0  0  0  0
   35.7061  -16.6683   36.6579 C   0  0  0  0  0  0  0  0  0  0  0  0
   36.7214  -17.7051   37.0776 C   0  0  0  0  0  0  0  0  0  0  0  0
   35.9145  -18.9095   37.5434 C   0  0  0  0  0  0  0  0  0  0  0  0
   35.0933  -19.4825   36.4116 C   0  0  0  0  0  0  0  0  0  0  0  0
   34.8349  -18.5315   35.3054 C   0  0  0  0  0  0  0  0  0  0  0  0
   37.6998  -13.9831   37.7512 C   0  0  0  0  0  0  0  0  0  0  0  0
   36.7906  -15.0248   38.0409 O   0  0  0  0  0  0  0  0  0  0  0  0
   32.7646  -21.0775   34.6106 C   0  0  0  0  0  0  0  0  0  0  0  0
   32.0906  -22.0158   35.5550 C   0  0  0  0  0  0  0  0  0  0  0  0
   32.9916  -22.3458   36.7188 C   0  0  0  0  0  0  0  0  0  0  0  0
   34.1928  -23.0003   36.5919 C   0  0  0  0  0  0  0  0  0  0  0  0
   34.9909  -23.3053   37.6680 C   0  0  0  0  0  0  0  0  0  0  0  0
   34.6096  -22.9572   38.9613 C   0  0  0  0  0  0  0  0  0  0  0  0
   33.4202  -22.3080   39.0978 C   0  0  0  0  0  0  0  0  0  0  0  0
   32.6077  -21.9973   37.9985 C   0  0  0  0  0  0  0  0  0  0  0  0
   33.1803  -22.0275   40.5387 C   0  0  0  0  0  0  0  0  0  0  0  0
   34.4033  -22.3956   41.1769 N   0  0  0  0  0  0  0  0  0  0  0  0
   35.2302  -23.1363   40.2851 C   0  0  0  0  0  0  0  0  0  0  0  0
   35.2983  -21.0232   41.7227 S   0  0  0  0  0  0  0  0  0  0  0  0
   35.3518  -20.9407   43.4903 C   0  0  0  0  0  0  0  0  0  0  0  0
   36.6816  -21.1346   41.1490 O   0  0  0  0  0  0  0  0  0  0  0  0
   34.6998  -19.7693   41.1258 O   0  0  0  0  0  0  0  0  0  0  0  0
 14 15  1  0  0  0
 15  4  1  0  0  0
  4  5  2  0  0  0
  5  6  1  0  0  0
  6  7  2  0  0  0
  7  8  1  0  0  0
  8  9  2  0  0  0
  9 10  1  0  0  0
 10 11  1  0  0  0
 11 12  1  0  0  0
 12 13  1  0  0  0
 13  3  1  0  0  0
  3  1  1  0  0  0
  1  2  1  0  0  0
  1 16  1  0  0  0
 16 17  1  0  0  0
 17 18  1  0  0  0
 18 19  2  0  0  0
 19 20  1  0  0  0
 20 21  2  0  0  0
 21 22  1  0  0  0
 22 23  2  0  0  0
 22 24  1  0  0  0
 24 25  1  0  0  0
 25 27  1  0  0  0
 27 28  1  0  0  0
 27 29  2  0  0  0
 27 30  2  0  0  0
 25 26  1  0  0  0
  9  4  1  0  0  0
 23 18  1  0  0  0
 13  8  1  0  0  0
 26 21  1  0  0  0
M  END
> <minimizedAffinity>
-5.62697

> <CNNscore>
0.5066506863

> <CNNaffinity>
5.2335944176

> <CNN_VS>
2.6516041756

> <CNNaffinity_variance>
0.4469411373

$$$$
[H]c1c([H])c(OC([H])([H])[H])c2c(c1[H])[C@]([H])(C([H])([H])N(C([H])([H])[H])C([H])([H])C([H])([H])c1c([H])c([H])c3c(c1[H])C([H])([H])N(S(=O)(=O)C([H])([H])[H])C3([H])[H])C([H])([H])C([H])([H])C2([H])[H]


 30 33  0  0  0  0  0  0  0  0999 V2000
   40.3675  -19.1929   34.8613 N   0  0  0  0  0  0  0  0  0  0  0  0
   41.0916  -18.5685   33.8439 C   0  0  0  0  0  0  0  0  0  0  0  0
   40.9633  -20.0339   35.7829 C   0  0  0  0  0  0  0  0  0  0  0  0
   41.8230  -19.5076   40.5832 C   0  0  0  0  0  0  0  0  0  0  0  0
   40.7843  -20.3879   40.8576 C   0  0  0  0  0  0  0  0  0  0  0  0
   40.0830  -20.9337   39.7802 C   0  0  0  0  0  0  0  0  0  0  0  0
   40.3858  -20.6302   38.4620 C   0  0  0  0  0  0  0  0  0  0  0  0
   41.4209  -19.7525   38.1905 C   0  0  0  0  0  0  0  0  0  0  0  0
   42.0941  -19.2306   39.2629 C   0  0  0  0  0  0  0  0  0  0  0  0
   43.2269  -18.3056   38.8847 C   0  0  0  0  0  0  0  0  0  0  0  0
   44.0627  -19.0698   37.8666 C   0  0  0  0  0  0  0  0  0  0  0  0
   43.2603  -19.3689   36.6215 C   0  0  0  0  0  0  0  0  0  0  0  0
   41.7927  -19.3410   36.8222 C   0  0  0  0  0  0  0  0  0  0  0  0
   42.4319  -19.2473   42.9573 C   0  0  0  0  0  0  0  0  0  0  0  0
   42.5877  -18.9056   41.5954 O   0  0  0  0  0  0  0  0  0  0  0  0
   38.9570  -19.0713   34.8619 C   0  0  0  0  0  0  0  0  0  0  0  0
   38.2940  -18.7687   36.1639 C   0  0  0  0  0  0  0  0  0  0  0  0
   36.8174  -18.5281   35.9716 C   0  0  0  0  0  0  0  0  0  0  0  0
   36.2996  -17.4133   35.3580 C   0  0  0  0  0  0  0  0  0  0  0  0
   34.9496  -17.2066   35.2076 C   0  0  0  0  0  0  0  0  0  0  0  0
   34.0276  -18.1371   35.6800 C   0  0  0  0  0  0  0  0  0  0  0  0
   34.5308  -19.2460   36.2901 C   0  0  0  0  0  0  0  0  0  0  0  0
   35.9087  -19.4552   36.4421 C   0  0  0  0  0  0  0  0  0  0  0  0
   33.4056  -20.1129   36.7312 C   0  0  0  0  0  0  0  0  0  0  0  0
   32.2477  -19.5045   36.1589 N   0  0  0  0  0  0  0  0  0  0  0  0
   32.5561  -18.2035   35.6690 C   0  0  0  0  0  0  0  0  0  0  0  0
   31.5976  -20.4287   34.8529 S   0  0  0  0  0  0  0  0  0  0  0  0
   32.2921  -22.0561   34.7970 C   0  0  0  0  0  0  0  0  0  0  0  0
   30.1093  -20.4870   35.0439 O   0  0  0  0  0  0  0  0  0  0  0  0
   31.8221  -19.6839   33.5561 O   0  0  0  0  0  0  0  0  0  0  0  0
 14 15  1  0  0  0
 15  4  1  0  0  0
  4  5  2  0  0  0
  5  6  1  0  0  0
  6  7  2  0  0  0
  7  8  1  0  0  0
  8  9  2  0  0  0
  9 10  1  0  0  0
 10 11  1  0  0  0
 11 12  1  0  0  0
 12 13  1  0  0  0
 13  3  1  0  0  0
  3  1  1  0  0  0
  1  2  1  0  0  0
  1 16  1  0  0  0
 16 17  1  0  0  0
 17 18  1  0  0  0
 18 19  2  0  0  0
 19 20  1  0  0  0
 20 21  2  0  0  0
 21 22  1  0  0  0
 22 23  2  0  0  0
 22 24  1  0  0  0
 24 25  1  0  0  0
 25 27  1  0  0  0
 27 28  1  0  0  0
 27 29  2  0  0  0
 27 30  2  0  0  0
 25 26  1  0  0  0
  9  4  1  0  0  0
 23 18  1  0  0  0
 13  8  1  0  0  0
 26 21  1  0  0  0
M  END
> <minimizedAffinity>
-6.33094

> <CNNscore>
0.4317737520

> <CNNaffinity>
5.0990462303

> <CNN_VS>
2.2016344070

> <CNNaffinity_variance>
0.1310556084

$$$$
[H]c1c([H])c(OC([H])([H])[H])c2c(c1[H])[C@]([H])(C([H])([H])N(C([H])([H])[H])C([H])([H])C([H])([H])c1c([H])c([H])c3c(c1[H])C([H])([H])N(S(=O)(=O)C([H])([H])[H])C3([H])[H])C([H])([H])C([H])([H])C2([H])[H]


 30 33  0  0  0  0  0  0  0  0999 V2000
   36.9265  -14.6116   36.9575 N   0  0  0  0  0  0  0  0  0  0  0  0
   37.7992  -13.9841   37.8486 C   0  0  0  0  0  0  0  0  0  0  0  0
   36.0229  -13.9039   36.1867 C   0  0  0  0  0  0  0  0  0  0  0  0
   33.7074   -9.6881   37.1484 C   0  0  0  0  0  0  0  0  0  0  0  0
   34.5986   -9.0188   36.3196 C   0  0  0  0  0  0  0  0  0  0  0  0
   35.5966   -9.7647   35.6885 C   0  0  0  0  0  0  0  0  0  0  0  0
   35.7253  -11.1342   35.8593 C   0  0  0  0  0  0  0  0  0  0  0  0
   34.8367  -11.7993   36.6859 C   0  0  0  0  0  0  0  0  0  0  0  0
   33.8667  -11.0471   37.2933 C   0  0  0  0  0  0  0  0  0  0  0  0
   32.9191  -11.8482   38.1548 C   0  0  0  0  0  0  0  0  0  0  0  0
   32.4367  -12.9980   37.2805 C   0  0  0  0  0  0  0  0  0  0  0  0
   33.5858  -13.8945   36.8811 C   0  0  0  0  0  0  0  0  0  0  0  0
   34.9167  -13.2483   36.9580 C   0  0  0  0  0  0  0  0  0  0  0  0
   31.3528   -8.9802   37.3203 C   0  0  0  0  0  0  0  0  0  0  0  0
   32.6703   -9.0291   37.8279 O   0  0  0  0  0  0  0  0  0  0  0  0
   36.8695  -16.0262   36.9478 C   0  0  0  0  0  0  0  0  0  0  0  0
   36.4928  -16.6898   35.6656 C   0  0  0  0  0  0  0  0  0  0  0  0
   35.4053  -17.7110   35.8886 C   0  0  0  0  0  0  0  0  0  0  0  0
   34.2691  -17.7955   35.1210 C   0  0  0  0  0  0  0  0  0  0  0  0
   33.2829  -18.7240   35.3518 C   0  0  0  0  0  0  0  0  0  0  0  0
   33.3939  -19.6393   36.3954 C   0  0  0  0  0  0  0  0  0  0  0  0
   34.5167  -19.5638   37.1625 C   0  0  0  0  0  0  0  0  0  0  0  0
   35.5220  -18.6160   36.9249 C   0  0  0  0  0  0  0  0  0  0  0  0
   34.4547  -20.6062   38.2217 C   0  0  0  0  0  0  0  0  0  0  0  0
   33.3118  -21.3897   37.8775 N   0  0  0  0  0  0  0  0  0  0  0  0
   32.5328  -20.7295   36.8850 C   0  0  0  0  0  0  0  0  0  0  0  0
   33.7423  -22.9485   37.2716 S   0  0  0  0  0  0  0  0  0  0  0  0
   35.4979  -23.1738   37.2406 C   0  0  0  0  0  0  0  0  0  0  0  0
   33.0863  -23.9689   38.1568 O   0  0  0  0  0  0  0  0  0  0  0  0
   33.1338  -23.1346   35.8998 O   0  0  0  0  0  0  0  0  0  0  0  0
 14 15  1  0  0  0
 15  4  1  0  0  0
  4  5  2  0  0  0
  5  6  1  0  0  0
  6  7  2  0  0  0
  7  8  1  0  0  0
  8  9  2  0  0  0
  9 10  1  0  0  0
 10 11  1  0  0  0
 11 12  1  0  0  0
 12 13  1  0  0  0
 13  3  1  0  0  0
  3  1  1  0  0  0
  1  2  1  0  0  0
  1 16  1  0  0  0
 16 17  1  0  0  0
 17 18  1  0  0  0
 18 19  2  0  0  0
 19 20  1  0  0  0
 20 21  2  0  0  0
 21 22  1  0  0  0
 22 23  2  0  0  0
 22 24  1  0  0  0
 24 25  1  0  0  0
 25 27  1  0  0  0
 27 28  1  0  0  0
 27 29  2  0  0  0
 27 30  2  0  0  0
 25 26  1  0  0  0
  9  4  1  0  0  0
 23 18  1  0  0  0
 13  8  1  0  0  0
 26 21  1  0  0  0
M  END
> <minimizedAffinity>
-7.23618

> <CNNscore>
0.4106285572

> <CNNaffinity>
6.1623253822

> <CNN_VS>
2.5304267406

> <CNNaffinity_variance>
0.0542991236

$$$$
[H]c1c([H])c(OC([H])([H])[H])c2c(c1[H])[C@]([H])(C([H])([H])N(C([H])([H])[H])C([H])([H])C([H])([H])c1c([H])c([H])c3c(c1[H])C([H])([H])N(S(=O)(=O)C([H])([H])[H])C3([H])[H])C([H])([H])C([H])([H])C2([H])[H]


 30 33  0  0  0  0  0  0  0  0999 V2000
   36.7998  -18.0987   34.9675 N   0  0  0  0  0  0  0  0  0  0  0  0
   37.0849  -17.7820   33.6380 C   0  0  0  0  0  0  0  0  0  0  0  0
   35.8776  -17.3894   35.7144 C   0  0  0  0  0  0  0  0  0  0  0  0
   34.5272  -12.7721   36.6713 C   0  0  0  0  0  0  0  0  0  0  0  0
   33.2279  -13.0816   36.2905 C   0  0  0  0  0  0  0  0  0  0  0  0
   32.9582  -14.3869   35.8734 C   0  0  0  0  0  0  0  0  0  0  0  0
   33.9323  -15.3721   35.8279 C   0  0  0  0  0  0  0  0  0  0  0  0
   35.2265  -15.0617   36.2074 C   0  0  0  0  0  0  0  0  0  0  0  0
   35.4667  -13.7757   36.6129 C   0  0  0  0  0  0  0  0  0  0  0  0
   36.8939  -13.5234   37.0384 C   0  0  0  0  0  0  0  0  0  0  0  0
   37.2282  -14.6226   38.0378 C   0  0  0  0  0  0  0  0  0  0  0  0
   37.1623  -15.9850   37.3874 C   0  0  0  0  0  0  0  0  0  0  0  0
   36.3375  -16.0328   36.1577 C   0  0  0  0  0  0  0  0  0  0  0  0
   33.9480  -10.4769   37.3580 C   0  0  0  0  0  0  0  0  0  0  0  0
   34.8999  -11.4897   37.1053 O   0  0  0  0  0  0  0  0  0  0  0  0
   37.5826  -19.0872   35.6114 C   0  0  0  0  0  0  0  0  0  0  0  0
   36.9221  -19.9037   36.6714 C   0  0  0  0  0  0  0  0  0  0  0  0
   37.9187  -20.3288   37.7209 C   0  0  0  0  0  0  0  0  0  0  0  0
   39.2794  -20.2086   37.5739 C   0  0  0  0  0  0  0  0  0  0  0  0
   40.1703  -20.6172   38.5368 C   0  0  0  0  0  0  0  0  0  0  0  0
   39.7243  -21.1829   39.7286 C   0  0  0  0  0  0  0  0  0  0  0  0
   38.3769  -21.3066   39.8839 C   0  0  0  0  0  0  0  0  0  0  0  0
   37.4695  -20.8885   38.9005 C   0  0  0  0  0  0  0  0  0  0  0  0
   38.0936  -21.9330   41.2029 C   0  0  0  0  0  0  0  0  0  0  0  0
   39.3647  -21.9769   41.8516 N   0  0  0  0  0  0  0  0  0  0  0  0
   40.4099  -21.7031   40.9241 C   0  0  0  0  0  0  0  0  0  0  0  0
   39.4825  -20.8370   43.1436 S   0  0  0  0  0  0  0  0  0  0  0  0
   37.8855  -20.2994   43.6862 C   0  0  0  0  0  0  0  0  0  0  0  0
   40.2323  -21.5036   44.2609 O   0  0  0  0  0  0  0  0  0  0  0  0
   40.3407  -19.6725   42.7029 O   0  0  0  0  0  0  0  0  0  0  0  0
 14 15  1  0  0  0
 15  4  1  0  0  0
  4  5  2  0  0  0
  5  6  1  0  0  0
  6  7  2  0  0  0
  7  8  1  0  0  0
  8  9  2  0  0  0
  9 10  1  0  0  0
 10 11  1  0  0  0
 11 12  1  0  0  0
 12 13  1  0  0  0
 13  3  1  0  0  0
  3  1  1  0  0  0
  1  2  1  0  0  0
  1 16  1  0  0  0
 16 17  1  0  0  0
 17 18  1  0  0  0
 18 19  2  0  0  0
 19 20  1  0  0  0
 20 21  2  0  0  0
 21 22  1  0  0  0
 22 23  2  0  0  0
 22 24  1  0  0  0
 24 25  1  0  0  0
 25 27  1  0  0  0
 27 28  1  0  0  0
 27 29  2  0  0  0
 27 30  2  0  0  0
 25 26  1  0  0  0
  9  4  1  0  0  0
 23 18  1  0  0  0
 13  8  1  0  0  0
 26 21  1  0  0  0
M  END
> <minimizedAffinity>
-5.96453

> <CNNscore>
0.3984389007

> <CNNaffinity>
5.3167943954

> <CNN_VS>
2.1184177399

> <CNNaffinity_variance>
0.1411062777

$$$$
[H]c1c([H])c(OC([H])([H])[H])c2c(c1[H])[C@]([H])(C([H])([H])N(C([H])([H])[H])C([H])([H])C([H])([H])c1c([H])c([H])c3c(c1[H])C([H])([H])N(S(=O)(=O)C([H])([H])[H])C3([H])[H])C([H])([H])C([H])([H])C2([H])[H]


 30 33  0  0  0  0  0  0  0  0999 V2000
   36.9272  -17.9337   34.9740 N   0  0  0  0  0  0  0  0  0  0  0  0
   36.8018  -17.6742   33.6079 C   0  0  0  0  0  0  0  0  0  0  0  0
   36.0981  -17.3525   35.9154 C   0  0  0  0  0  0  0  0  0  0  0  0
   34.4651  -12.7799   36.6102 C   0  0  0  0  0  0  0  0  0  0  0  0
   33.1954  -13.1819   36.2160 C   0  0  0  0  0  0  0  0  0  0  0  0
   33.0106  -14.5193   35.8585 C   0  0  0  0  0  0  0  0  0  0  0  0
   34.0397  -15.4477   35.8842 C   0  0  0  0  0  0  0  0  0  0  0  0
   35.3042  -15.0451   36.2769 C   0  0  0  0  0  0  0  0  0  0  0  0
   35.4609  -13.7293   36.6231 C   0  0  0  0  0  0  0  0  0  0  0  0
   36.8604  -13.3747   37.0677 C   0  0  0  0  0  0  0  0  0  0  0  0
   37.2308  -14.4031   38.1279 C   0  0  0  0  0  0  0  0  0  0  0  0
   37.2585  -15.7970   37.5449 C   0  0  0  0  0  0  0  0  0  0  0  0
   36.4692  -15.9518   36.3008 C   0  0  0  0  0  0  0  0  0  0  0  0
   33.7661  -10.5957   37.5135 C   0  0  0  0  0  0  0  0  0  0  0  0
   34.7536  -11.4586   36.9880 O   0  0  0  0  0  0  0  0  0  0  0  0
   38.0275  -18.7057   35.4188 C   0  0  0  0  0  0  0  0  0  0  0  0
   37.7854  -19.6693   36.5320 C   0  0  0  0  0  0  0  0  0  0  0  0
   39.0370  -19.8715   37.3492 C   0  0  0  0  0  0  0  0  0  0  0  0
   40.2231  -19.2242   37.1007 C   0  0  0  0  0  0  0  0  0  0  0  0
   41.3564  -19.4354   37.8484 C   0  0  0  0  0  0  0  0  0  0  0  0
   41.3526  -20.3332   38.9129 C   0  0  0  0  0  0  0  0  0  0  0  0
   40.1815  -20.9801   39.1675 C   0  0  0  0  0  0  0  0  0  0  0  0
   39.0261  -20.7627   38.4037 C   0  0  0  0  0  0  0  0  0  0  0  0
   40.3712  -21.8949   40.3248 C   0  0  0  0  0  0  0  0  0  0  0  0
   41.6730  -21.5748   40.8163 N   0  0  0  0  0  0  0  0  0  0  0  0
   42.3765  -20.7651   39.8798 C   0  0  0  0  0  0  0  0  0  0  0  0
   41.6172  -20.7288   42.3208 S   0  0  0  0  0  0  0  0  0  0  0  0
   43.2397  -20.4455   42.9699 C   0  0  0  0  0  0  0  0  0  0  0  0
   40.9028  -19.4306   42.0774 O   0  0  0  0  0  0  0  0  0  0  0  0
   40.7563  -21.5016   43.2946 O   0  0  0  0  0  0  0  0  0  0  0  0
 14 15  1  0  0  0
 15  4  1  0  0  0
  4  5  2  0  0  0
  5  6  1  0  0  0
  6  7  2  0  0  0
  7  8  1  0  0  0
  8  9  2  0  0  0
  9 10  1  0  0  0
 10 11  1  0  0  0
 11 12  1  0  0  0
 12 13  1  0  0  0
 13  3  1  0  0  0
  3  1  1  0  0  0
  1  2  1  0  0  0
  1 16  1  0  0  0
 16 17  1  0  0  0
 17 18  1  0  0  0
 18 19  2  0  0  0
 19 20  1  0  0  0
 20 21  2  0  0  0
 21 22  1  0  0  0
 22 23  2  0  0  0
 22 24  1  0  0  0
 24 25  1  0  0  0
 25 27  1  0  0  0
 27 28  1  0  0  0
 27 29  2  0  0  0
 27 30  2  0  0  0
 25 26  1  0  0  0
  9  4  1  0  0  0
 23 18  1  0  0  0
 13  8  1  0  0  0
 26 21  1  0  0  0
M  END
> <minimizedAffinity>
-6.07710

> <CNNscore>
0.3907897472

> <CNNaffinity>
5.3585753441

> <CNN_VS>
2.0940763950

> <CNNaffinity_variance>
0.1657995731

$$$$
[H]c1c([H])c(OC([H])([H])[H])c2c(c1[H])[C@]([H])(C([H])([H])N(C([H])([H])[H])C([H])([H])C([H])([H])c1c([H])c([H])c3c(c1[H])C([H])([H])N(S(=O)(=O)C([H])([H])[H])C3([H])[H])C([H])([H])C([H])([H])C2([H])[H]


 30 33  0  0  0  0  0  0  0  0999 V2000
   35.4249  -18.0892   35.1729 N   0  0  0  0  0  0  0  0  0  0  0  0
   34.5341  -18.0787   34.0979 C   0  0  0  0  0  0  0  0  0  0  0  0
   35.2019  -17.3568   36.3242 C   0  0  0  0  0  0  0  0  0  0  0  0
   34.9989  -12.4578   36.4566 C   0  0  0  0  0  0  0  0  0  0  0  0
   33.6209  -12.5185   36.2939 C   0  0  0  0  0  0  0  0  0  0  0  0
   33.0263  -13.7776   36.1863 C   0  0  0  0  0  0  0  0  0  0  0  0
   33.7568  -14.9546   36.2362 C   0  0  0  0  0  0  0  0  0  0  0  0
   35.1299  -14.8922   36.3979 C   0  0  0  0  0  0  0  0  0  0  0  0
   35.6902  -13.6467   36.5016 C   0  0  0  0  0  0  0  0  0  0  0  0
   37.1869  -13.6626   36.7051 C   0  0  0  0  0  0  0  0  0  0  0  0
   37.4365  -14.6167   37.8655 C   0  0  0  0  0  0  0  0  0  0  0  0
   36.9910  -16.0187   37.5201 C   0  0  0  0  0  0  0  0  0  0  0  0
   35.9949  -16.0883   36.4257 C   0  0  0  0  0  0  0  0  0  0  0  0
   35.6362  -10.2474   35.5717 C   0  0  0  0  0  0  0  0  0  0  0  0
   35.6909  -11.2416   36.5739 O   0  0  0  0  0  0  0  0  0  0  0  0
   36.6625  -18.7598   35.0209 C   0  0  0  0  0  0  0  0  0  0  0  0
   37.7018  -18.1008   34.1771 C   0  0  0  0  0  0  0  0  0  0  0  0
   38.8666  -19.0287   33.9373 C   0  0  0  0  0  0  0  0  0  0  0  0
   40.0635  -18.6264   33.3959 C   0  0  0  0  0  0  0  0  0  0  0  0
   41.1065  -19.4921   33.1712 C   0  0  0  0  0  0  0  0  0  0  0  0
   40.9942  -20.8433   33.4888 C   0  0  0  0  0  0  0  0  0  0  0  0
   39.8114  -21.2523   34.0260 C   0  0  0  0  0  0  0  0  0  0  0  0
   38.7486  -20.3672   34.2551 C   0  0  0  0  0  0  0  0  0  0  0  0
   39.8754  -22.7147   34.2901 C   0  0  0  0  0  0  0  0  0  0  0  0
   41.2385  -23.0578   34.0397 N   0  0  0  0  0  0  0  0  0  0  0  0
   41.9089  -21.9922   33.3742 C   0  0  0  0  0  0  0  0  0  0  0  0
   42.1041  -23.4118   35.4915 S   0  0  0  0  0  0  0  0  0  0  0  0
   42.2446  -25.1564   35.7577 C   0  0  0  0  0  0  0  0  0  0  0  0
   43.4596  -22.7771   35.3699 O   0  0  0  0  0  0  0  0  0  0  0  0
   41.4257  -22.7250   36.6554 O   0  0  0  0  0  0  0  0  0  0  0  0
 14 15  1  0  0  0
 15  4  1  0  0  0
  4  5  2  0  0  0
  5  6  1  0  0  0
  6  7  2  0  0  0
  7  8  1  0  0  0
  8  9  2  0  0  0
  9 10  1  0  0  0
 10 11  1  0  0  0
 11 12  1  0  0  0
 12 13  1  0  0  0
 13  3  1  0  0  0
  3  1  1  0  0  0
  1  2  1  0  0  0
  1 16  1  0  0  0
 16 17  1  0  0  0
 17 18  1  0  0  0
 18 19  2  0  0  0
 19 20  1  0  0  0
 20 21  2  0  0  0
 21 22  1  0  0  0
 22 23  2  0  0  0
 22 24  1  0  0  0
 24 25  1  0  0  0
 25 27  1  0  0  0
 27 28  1  0  0  0
 27 29  2  0  0  0
 27 30  2  0  0  0
 25 26  1  0  0  0
  9  4  1  0  0  0
 23 18  1  0  0  0
 13  8  1  0  0  0
 26 21  1  0  0  0
M  END
> <minimizedAffinity>
-6.07083

> <CNNscore>
0.3696953058

> <CNNaffinity>
5.4151735306

> <CNN_VS>
2.0019643307

> <CNNaffinity_variance>
0.1254152805

$$$$
[H]c1c([H])c(OC([H])([H])[H])c2c(c1[H])[C@]([H])(C([H])([H])N(C([H])([H])[H])C([H])([H])C([H])([H])c1c([H])c([H])c3c(c1[H])C([H])([H])N(S(=O)(=O)C([H])([H])[H])C3([H])[H])C([H])([H])C([H])([H])C2([H])[H]


 30 33  0  0  0  0  0  0  0  0999 V2000
   37.0060  -14.2865   37.1401 N   0  0  0  0  0  0  0  0  0  0  0  0
   38.0906  -13.5464   37.6146 C   0  0  0  0  0  0  0  0  0  0  0  0
   36.0377  -13.7359   36.3211 C   0  0  0  0  0  0  0  0  0  0  0  0
   33.6644   -9.5156   37.1058 C   0  0  0  0  0  0  0  0  0  0  0  0
   34.5713   -8.8617   36.2818 C   0  0  0  0  0  0  0  0  0  0  0  0
   35.5912   -9.6159   35.6974 C   0  0  0  0  0  0  0  0  0  0  0  0
   35.7265  -10.9791   35.9094 C   0  0  0  0  0  0  0  0  0  0  0  0
   34.8221  -11.6289   36.7311 C   0  0  0  0  0  0  0  0  0  0  0  0
   33.8308  -10.8687   37.2924 C   0  0  0  0  0  0  0  0  0  0  0  0
   32.8677  -11.6541   38.1512 C   0  0  0  0  0  0  0  0  0  0  0  0
   32.4173  -12.8316   37.2971 C   0  0  0  0  0  0  0  0  0  0  0  0
   33.5835  -13.7287   36.9523 C   0  0  0  0  0  0  0  0  0  0  0  0
   34.9067  -13.0690   37.0452 C   0  0  0  0  0  0  0  0  0  0  0  0
   31.2678   -8.9747   37.3018 C   0  0  0  0  0  0  0  0  0  0  0  0
   32.6048   -8.8473   37.7399 O   0  0  0  0  0  0  0  0  0  0  0  0
   36.8181  -15.6022   37.6282 C   0  0  0  0  0  0  0  0  0  0  0  0
   35.9328  -16.5077   36.8391 C   0  0  0  0  0  0  0  0  0  0  0  0
   36.5988  -17.8409   36.6062 C   0  0  0  0  0  0  0  0  0  0  0  0
   37.4050  -18.1128   35.5274 C   0  0  0  0  0  0  0  0  0  0  0  0
   37.9893  -19.3400   35.3262 C   0  0  0  0  0  0  0  0  0  0  0  0
   37.7860  -20.3838   36.2254 C   0  0  0  0  0  0  0  0  0  0  0  0
   36.9882  -20.1244   37.2983 C   0  0  0  0  0  0  0  0  0  0  0  0
   36.3935  -18.8713   37.5020 C   0  0  0  0  0  0  0  0  0  0  0  0
   36.8829  -21.3495   38.1352 C   0  0  0  0  0  0  0  0  0  0  0  0
   37.8268  -22.2519   37.5579 N   0  0  0  0  0  0  0  0  0  0  0  0
   38.2623  -21.7763   36.2883 C   0  0  0  0  0  0  0  0  0  0  0  0
   39.2199  -22.4716   38.5546 S   0  0  0  0  0  0  0  0  0  0  0  0
   39.4049  -21.1492   39.7169 C   0  0  0  0  0  0  0  0  0  0  0  0
   39.0616  -23.7877   39.2602 O   0  0  0  0  0  0  0  0  0  0  0  0
   40.4425  -22.6145   37.6763 O   0  0  0  0  0  0  0  0  0  0  0  0
 14 15  1  0  0  0
 15  4  1  0  0  0
  4  5  2  0  0  0
  5  6  1  0  0  0
  6  7  2  0  0  0
  7  8  1  0  0  0
  8  9  2  0  0  0
  9 10  1  0  0  0
 10 11  1  0  0  0
 11 12  1  0  0  0
 12 13  1  0  0  0
 13  3  1  0  0  0
  3  1  1  0  0  0
  1  2  1  0  0  0
  1 16  1  0  0  0
 16 17  1  0  0  0
 17 18  1  0  0  0
 18 19  2  0  0  0
 19 20  1  0  0  0
 20 21  2  0  0  0
 21 22  1  0  0  0
 22 23  2  0  0  0
 22 24  1  0  0  0
 24 25  1  0  0  0
 25 27  1  0  0  0
 27 28  1  0  0  0
 27 29  2  0  0  0
 27 30  2  0  0  0
 25 26  1  0  0  0
  9  4  1  0  0  0
 23 18  1  0  0  0
 13  8  1  0  0  0
 26 21  1  0  0  0
M  END
> <minimizedAffinity>
-7.13863

> <CNNscore>
0.3581085801

> <CNNaffinity>
6.1032423973

> <CNN_VS>
2.1856234074

> <CNNaffinity_variance>
0.0265479088

$$$$
[H]N=C(c1c([H])c([H])c(C([H])([H])N([H])C(=O)C2([H])N3C(=O)[C@](O[H])(C([H])([H])c4c([H])c([H])c([H])c([H])c4[H])C([H])([H])C([H])([H])[C@]3([H])C([H])([H])C2([H])[H])c([H])c1[H])N([H])[H]


 36 39  0  0  0  0  0  0  0  0999 V2000
   36.3926  -17.3574   34.9344 C   0  0  0  0  0  0  0  0  0  0  0  0
   37.6559  -18.1895   34.9974 C   0  0  0  0  0  0  0  0  0  0  0  0
   37.2028  -19.3347   35.8901 C   0  0  0  0  0  0  0  0  0  0  0  0
   35.8547  -19.6583   35.2879 C   0  0  0  0  0  0  0  0  0  0  0  0
   34.9269  -20.2982   36.2861 C   0  0  0  0  0  0  0  0  0  0  0  0
   33.5362  -20.4194   35.7560 C   0  0  0  0  0  0  0  0  0  0  0  0
   33.2844  -19.6528   34.4879 C   0  0  0  0  0  0  0  0  0  0  0  0
   33.7791  -20.3452   33.3697 O   0  0  0  0  0  0  0  0  0  0  0  0
   33.9283  -18.3188   34.6132 C   0  0  0  0  0  0  0  0  0  0  0  0
   33.3444  -17.2273   34.4805 O   0  0  0  0  0  0  0  0  0  0  0  0
   35.3321  -18.3360   34.9103 N   0  0  0  0  0  0  0  0  0  0  0  0
   33.6354  -21.3145   33.5851 H   0  0  0  0  0  0  0  0  0  0  0  0
   36.7639  -15.1950   36.1124 N   0  0  0  0  0  0  0  0  0  0  0  0
   36.3632  -16.5524   36.2077 C   0  0  0  0  0  0  0  0  0  0  0  0
   36.0096  -17.0385   37.2901 O   0  0  0  0  0  0  0  0  0  0  0  0
   37.0704  -14.7653   35.1930 H   0  0  0  0  0  0  0  0  0  0  0  0
   36.7890  -14.2882   37.2470 C   0  0  0  0  0  0  0  0  0  0  0  0
   33.1420  -12.0726   37.3490 C   0  0  0  0  0  0  0  0  0  0  0  0
   34.2867  -11.5441   36.8210 C   0  0  0  0  0  0  0  0  0  0  0  0
   35.4944  -12.2315   36.7661 C   0  0  0  0  0  0  0  0  0  0  0  0
   35.5388  -13.5020   37.2667 C   0  0  0  0  0  0  0  0  0  0  0  0
   34.4055  -14.0583   37.8027 C   0  0  0  0  0  0  0  0  0  0  0  0
   33.2006  -13.3709   37.8568 C   0  0  0  0  0  0  0  0  0  0  0  0
   30.7199  -11.8545   37.3229 N   0  0  0  0  0  0  0  0  0  0  0  0
   31.8873  -11.3364   37.3978 C   0  0  0  0  0  0  0  0  0  0  0  0
   31.9148   -9.9052   37.5419 N   0  0  0  0  0  0  0  0  0  0  0  0
   30.6194  -12.8754   37.2185 H   0  0  0  0  0  0  0  0  0  0  0  0
   32.3032   -9.4644   38.4023 H   0  0  0  0  0  0  0  0  0  0  0  0
   31.5378   -9.3183   36.7668 H   0  0  0  0  0  0  0  0  0  0  0  0
   31.7947  -19.5214   34.2753 C   0  0  0  0  0  0  0  0  0  0  0  0
   31.0245  -20.6151   34.8632 C   0  0  0  0  0  0  0  0  0  0  0  0
   31.3733  -21.9453   34.7362 C   0  0  0  0  0  0  0  0  0  0  0  0
   30.6151  -22.9556   35.3062 C   0  0  0  0  0  0  0  0  0  0  0  0
   29.4790  -22.6503   36.0230 C   0  0  0  0  0  0  0  0  0  0  0  0
   29.1171  -21.3426   36.1601 C   0  0  0  0  0  0  0  0  0  0  0  0
   29.8842  -20.3327   35.5844 C   0  0  0  0  0  0  0  0  0  0  0  0
 24 25  2  0  0  0
 25 26  1  0  0  0
 25 18  1  0  0  0
 18 19  2  0  0  0
 19 20  1  0  0  0
 20 21  2  0  0  0
 21 17  1  0  0  0
 17 13  1  0  0  0
 13 14  1  0  0  0
 14 15  2  0  0  0
 14  1  1  0  0  0
  1  2  1  0  0  0
  2  3  1  0  0  0
  3  4  1  0  0  0
  4  5  1  0  0  0
  5  6  1  0  0  0
  6  7  1  0  0  0
  7  8  1  0  0  0
  7 30  1  0  0  0
 30 31  1  0  0  0
 31 32  2  0  0  0
 32 33  1  0  0  0
 33 34  2  0  0  0
 34 35  1  0  0  0
 35 36  2  0  0  0
  7  9  1  0  0  0
  9 10  2  0  0  0
  9 11  1  0  0  0
 21 22  1  0  0  0
 22 23  2  0  0  0
 23 18  1  0  0  0
 11  1  1  0  0  0
 11  4  1  0  0  0
 36 31  1  0  0  0
 24 27  1  0  0  0
 26 28  1  0  0  0
 26 29  1  0  0  0
 13 16  1  0  0  0
  8 12  1  0  0  0
M  END
> <minimizedAffinity>
-9.02134

> <CNNscore>
0.4630091488

> <CNNaffinity>
5.9228782654

> <CNN_VS>
2.7423467636

> <CNNaffinity_variance>
0.1797248274

$$$$
[H]N=C(c1c([H])c([H])c(C([H])([H])N([H])C(=O)C2([H])N3C(=O)[C@](O[H])(C([H])([H])c4c([H])c([H])c([H])c([H])c4[H])C([H])([H])C([H])([H])[C@]3([H])C([H])([H])C2([H])[H])c([H])c1[H])N([H])[H]


 36 39  0  0  0  0  0  0  0  0999 V2000
   36.0430  -15.0996   37.7877 C   0  0  0  0  0  0  0  0  0  0  0  0
   37.3672  -14.4727   38.1694 C   0  0  0  0  0  0  0  0  0  0  0  0
   37.4015  -13.2766   37.2304 C   0  0  0  0  0  0  0  0  0  0  0  0
   35.9946  -12.7454   37.3830 C   0  0  0  0  0  0  0  0  0  0  0  0
   35.5445  -11.9759   36.1697 C   0  0  0  0  0  0  0  0  0  0  0  0
   34.0912  -11.6385   36.2316 C   0  0  0  0  0  0  0  0  0  0  0  0
   33.3327  -12.3497   37.3170 C   0  0  0  0  0  0  0  0  0  0  0  0
   33.5362  -11.7354   38.5643 O   0  0  0  0  0  0  0  0  0  0  0  0
   33.7778  -13.7678   37.3454 C   0  0  0  0  0  0  0  0  0  0  0  0
   33.0277  -14.7553   37.2356 O   0  0  0  0  0  0  0  0  0  0  0  0
   35.1885  -13.9691   37.5144 N   0  0  0  0  0  0  0  0  0  0  0  0
   33.6147  -10.7568   38.3574 H   0  0  0  0  0  0  0  0  0  0  0  0
   36.7786  -17.2240   36.7166 N   0  0  0  0  0  0  0  0  0  0  0  0
   36.3079  -15.8979   36.5376 C   0  0  0  0  0  0  0  0  0  0  0  0
   36.1286  -15.4324   35.4045 O   0  0  0  0  0  0  0  0  0  0  0  0
   36.9382  -17.6358   37.6804 H   0  0  0  0  0  0  0  0  0  0  0  0
   37.0783  -18.1207   35.6138 C   0  0  0  0  0  0  0  0  0  0  0  0
   33.5556  -20.3463   34.6881 C   0  0  0  0  0  0  0  0  0  0  0  0
   34.1998  -19.5987   33.7423 C   0  0  0  0  0  0  0  0  0  0  0  0
   35.3501  -18.8612   34.0006 C   0  0  0  0  0  0  0  0  0  0  0  0
   35.8631  -18.8850   35.2667 C   0  0  0  0  0  0  0  0  0  0  0  0
   35.2378  -19.6266   36.2364 C   0  0  0  0  0  0  0  0  0  0  0  0
   34.0896  -20.3624   35.9770 C   0  0  0  0  0  0  0  0  0  0  0  0
   32.3213  -22.2659   33.8474 N   0  0  0  0  0  0  0  0  0  0  0  0
   32.3518  -21.1113   34.3978 C   0  0  0  0  0  0  0  0  0  0  0  0
   31.0674  -20.5621   34.7421 N   0  0  0  0  0  0  0  0  0  0  0  0
   33.2030  -22.7244   33.5721 H   0  0  0  0  0  0  0  0  0  0  0  0
   30.8143  -20.3833   35.7367 H   0  0  0  0  0  0  0  0  0  0  0  0
   30.3950  -20.3467   33.9747 H   0  0  0  0  0  0  0  0  0  0  0  0
   31.8521  -12.2484   37.0354 C   0  0  0  0  0  0  0  0  0  0  0  0
   31.0284  -12.2589   38.2422 C   0  0  0  0  0  0  0  0  0  0  0  0
   31.3271  -13.0120   39.3607 C   0  0  0  0  0  0  0  0  0  0  0  0
   30.5189  -12.9978   40.4863 C   0  0  0  0  0  0  0  0  0  0  0  0
   29.3821  -12.2203   40.5147 C   0  0  0  0  0  0  0  0  0  0  0  0
   29.0693  -11.4692   39.4202 C   0  0  0  0  0  0  0  0  0  0  0  0
   29.8863  -11.4885   38.2924 C   0  0  0  0  0  0  0  0  0  0  0  0
 24 25  2  0  0  0
 25 26  1  0  0  0
 25 18  1  0  0  0
 18 19  2  0  0  0
 19 20  1  0  0  0
 20 21  2  0  0  0
 21 17  1  0  0  0
 17 13  1  0  0  0
 13 14  1  0  0  0
 14 15  2  0  0  0
 14  1  1  0  0  0
  1  2  1  0  0  0
  2  3  1  0  0  0
  3  4  1  0  0  0
  4  5  1  0  0  0
  5  6  1  0  0  0
  6  7  1  0  0  0
  7  8  1  0  0  0
  7 30  1  0  0  0
 30 31  1  0  0  0
 31 32  2  0  0  0
 32 33  1  0  0  0
 33 34  2  0  0  0
 34 35  1  0  0  0
 35 36  2  0  0  0
  7  9  1  0  0  0
  9 10  2  0  0  0
  9 11  1  0  0  0
 21 22  1  0  0  0
 22 23  2  0  0  0
 23 18  1  0  0  0
 11  1  1  0  0  0
 11  4  1  0  0  0
 36 31  1  0  0  0
 24 27  1  0  0  0
 26 28  1  0  0  0
 26 29  1  0  0  0
 13 16  1  0  0  0
  8 12  1  0  0  0
M  END
> <minimizedAffinity>
-7.05758

> <CNNscore>
0.4031954706

> <CNNaffinity>
5.6942892075

> <CNN_VS>
2.2959115505

> <CNNaffinity_variance>
0.0559998378

$$$$
[H]N=C(c1c([H])c([H])c(C([H])([H])N([H])C(=O)C2([H])N3C(=O)[C@](O[H])(C([H])([H])c4c([H])c([H])c([H])c([H])c4[H])C([H])([H])C([H])([H])[C@]3([H])C([H])([H])C2([H])[H])c([H])c1[H])N([H])[H]


 36 39  0  0  0  0  0  0  0  0999 V2000
   40.9149  -19.0414   35.2710 C   0  0  0  0  0  0  0  0  0  0  0  0
   41.4194  -19.0090   33.8439 C   0  0  0  0  0  0  0  0  0  0  0  0
   40.2945  -19.7367   33.1237 C   0  0  0  0  0  0  0  0  0  0  0  0
   39.0805  -19.0807   33.7406 C   0  0  0  0  0  0  0  0  0  0  0  0
   37.8695  -19.9741   33.6964 C   0  0  0  0  0  0  0  0  0  0  0  0
   36.7360  -19.4158   34.4921 C   0  0  0  0  0  0  0  0  0  0  0  0
   37.1065  -18.2573   35.3752 C   0  0  0  0  0  0  0  0  0  0  0  0
   37.1875  -17.0634   34.6387 O   0  0  0  0  0  0  0  0  0  0  0  0
   38.4051  -18.5658   36.0297 C   0  0  0  0  0  0  0  0  0  0  0  0
   38.6033  -18.5717   37.2587 O   0  0  0  0  0  0  0  0  0  0  0  0
   39.4873  -18.8751   35.1394 N   0  0  0  0  0  0  0  0  0  0  0  0
   36.4749  -17.1469   33.9374 H   0  0  0  0  0  0  0  0  0  0  0  0
   40.4508  -20.9048   36.8566 N   0  0  0  0  0  0  0  0  0  0  0  0
   41.2582  -20.4096   35.8005 C   0  0  0  0  0  0  0  0  0  0  0  0
   42.1953  -21.0790   35.3465 O   0  0  0  0  0  0  0  0  0  0  0  0
   39.6459  -20.3426   37.2565 H   0  0  0  0  0  0  0  0  0  0  0  0
   40.6515  -22.2046   37.4732 C   0  0  0  0  0  0  0  0  0  0  0  0
   37.9282  -22.7227   40.7189 C   0  0  0  0  0  0  0  0  0  0  0  0
   38.5374  -21.5227   40.4795 C   0  0  0  0  0  0  0  0  0  0  0  0
   39.4284  -21.3103   39.4332 C   0  0  0  0  0  0  0  0  0  0  0  0
   39.7099  -22.3566   38.6009 C   0  0  0  0  0  0  0  0  0  0  0  0
   39.1134  -23.5727   38.8168 C   0  0  0  0  0  0  0  0  0  0  0  0
   38.2240  -23.7832   39.8617 C   0  0  0  0  0  0  0  0  0  0  0  0
   36.4259  -21.9960   42.4881 N   0  0  0  0  0  0  0  0  0  0  0  0
   36.9984  -22.9251   41.8203 C   0  0  0  0  0  0  0  0  0  0  0  0
   36.6661  -24.2651   42.2253 N   0  0  0  0  0  0  0  0  0  0  0  0
   36.6146  -21.0091   42.2562 H   0  0  0  0  0  0  0  0  0  0  0  0
   36.1670  -24.9089   41.5760 H   0  0  0  0  0  0  0  0  0  0  0  0
   36.9355  -24.5782   43.1827 H   0  0  0  0  0  0  0  0  0  0  0  0
   36.0164  -18.0460   36.3993 C   0  0  0  0  0  0  0  0  0  0  0  0
   35.7307  -16.6374   36.6625 C   0  0  0  0  0  0  0  0  0  0  0  0
   36.5213  -15.8377   37.4642 C   0  0  0  0  0  0  0  0  0  0  0  0
   36.2156  -14.5055   37.6927 C   0  0  0  0  0  0  0  0  0  0  0  0
   35.0990  -13.9410   37.1164 C   0  0  0  0  0  0  0  0  0  0  0  0
   34.3050  -14.7139   36.3213 C   0  0  0  0  0  0  0  0  0  0  0  0
   34.6185  -16.0520   36.0962 C   0  0  0  0  0  0  0  0  0  0  0  0
 24 25  2  0  0  0
 25 26  1  0  0  0
 25 18  1  0  0  0
 18 19  2  0  0  0
 19 20  1  0  0  0
 20 21  2  0  0  0
 21 17  1  0  0  0
 17 13  1  0  0  0
 13 14  1  0  0  0
 14 15  2  0  0  0
 14  1  1  0  0  0
  1  2  1  0  0  0
  2  3  1  0  0  0
  3  4  1  0  0  0
  4  5  1  0  0  0
  5  6  1  0  0  0
  6  7  1  0  0  0
  7  8  1  0  0  0
  7 30  1  0  0  0
 30 31  1  0  0  0
 31 32  2  0  0  0
 32 33  1  0  0  0
 33 34  2  0  0  0
 34 35  1  0  0  0
 35 36  2  0  0  0
  7  9  1  0  0  0
  9 10  2  0  0  0
  9 11  1  0  0  0
 21 22  1  0  0  0
 22 23  2  0  0  0
 23 18  1  0  0  0
 11  1  1  0  0  0
 11  4  1  0  0  0
 36 31  1  0  0  0
 24 27  1  0  0  0
 26 28  1  0  0  0
 26 29  1  0  0  0
 13 16  1  0  0  0
  8 12  1  0  0  0
M  END
> <minimizedAffinity>
-5.70779

> <CNNscore>
0.4027679861

> <CNNaffinity>
4.6930694580

> <CNN_VS>
1.8902181387

> <CNNaffinity_variance>
0.2116903961

$$$$
[H]N=C(c1c([H])c([H])c(C([H])([H])N([H])C(=O)C2([H])N3C(=O)[C@](O[H])(C([H])([H])c4c([H])c([H])c([H])c([H])c4[H])C([H])([H])C([H])([H])[C@]3([H])C([H])([H])C2([H])[H])c([H])c1[H])N([H])[H]


 36 39  0  0  0  0  0  0  0  0999 V2000
   35.9187  -17.8282   35.3608 C   0  0  0  0  0  0  0  0  0  0  0  0
   37.1957  -18.2009   34.6380 C   0  0  0  0  0  0  0  0  0  0  0  0
   37.8459  -19.1232   35.6580 C   0  0  0  0  0  0  0  0  0  0  0  0
   36.6714  -19.9842   36.0631 C   0  0  0  0  0  0  0  0  0  0  0  0
   36.8368  -20.5537   37.4470 C   0  0  0  0  0  0  0  0  0  0  0  0
   35.5907  -21.2219   37.9270 C   0  0  0  0  0  0  0  0  0  0  0  0
   34.3772  -20.9581   37.0802 C   0  0  0  0  0  0  0  0  0  0  0  0
   34.3760  -21.7653   35.9300 O   0  0  0  0  0  0  0  0  0  0  0  0
   34.3659  -19.5168   36.7165 C   0  0  0  0  0  0  0  0  0  0  0  0
   33.4292  -18.7290   36.9438 O   0  0  0  0  0  0  0  0  0  0  0  0
   35.5451  -19.0378   36.0538 N   0  0  0  0  0  0  0  0  0  0  0  0
   34.7901  -22.6304   36.2244 H   0  0  0  0  0  0  0  0  0  0  0  0
   36.4946  -15.4431   35.7868 N   0  0  0  0  0  0  0  0  0  0  0  0
   36.2949  -16.7380   36.3305 C   0  0  0  0  0  0  0  0  0  0  0  0
   36.4268  -16.9476   37.5435 O   0  0  0  0  0  0  0  0  0  0  0  0
   36.3865  -15.2487   34.7502 H   0  0  0  0  0  0  0  0  0  0  0  0
   36.8585  -14.2877   36.5885 C   0  0  0  0  0  0  0  0  0  0  0  0
   33.3560  -12.0283   37.5091 C   0  0  0  0  0  0  0  0  0  0  0  0
   33.4961  -13.3277   37.9095 C   0  0  0  0  0  0  0  0  0  0  0  0
   34.6200  -14.0984   37.6331 C   0  0  0  0  0  0  0  0  0  0  0  0
   35.6379  -13.5265   36.9235 C   0  0  0  0  0  0  0  0  0  0  0  0
   35.5253  -12.2240   36.5086 C   0  0  0  0  0  0  0  0  0  0  0  0
   34.4025  -11.4558   36.7854 C   0  0  0  0  0  0  0  0  0  0  0  0
   31.9927  -10.0145   37.4797 N   0  0  0  0  0  0  0  0  0  0  0  0
   32.1708  -11.2382   37.8082 C   0  0  0  0  0  0  0  0  0  0  0  0
   31.0840  -11.8433   38.5311 N   0  0  0  0  0  0  0  0  0  0  0  0
   32.7280   -9.5127   36.9594 H   0  0  0  0  0  0  0  0  0  0  0  0
   30.5516  -12.6402   38.1227 H   0  0  0  0  0  0  0  0  0  0  0  0
   30.8405  -11.4672   39.4727 H   0  0  0  0  0  0  0  0  0  0  0  0
   33.1383  -21.3339   37.8584 C   0  0  0  0  0  0  0  0  0  0  0  0
   32.0948  -21.9394   37.0340 C   0  0  0  0  0  0  0  0  0  0  0  0
   31.1915  -21.2058   36.2902 C   0  0  0  0  0  0  0  0  0  0  0  0
   30.2131  -21.8168   35.5221 C   0  0  0  0  0  0  0  0  0  0  0  0
   30.1185  -23.1905   35.4833 C   0  0  0  0  0  0  0  0  0  0  0  0
   31.0012  -23.9332   36.2109 C   0  0  0  0  0  0  0  0  0  0  0  0
   31.9818  -23.3122   36.9805 C   0  0  0  0  0  0  0  0  0  0  0  0
 24 25  2  0  0  0
 25 26  1  0  0  0
 25 18  1  0  0  0
 18 19  2  0  0  0
 19 20  1  0  0  0
 20 21  2  0  0  0
 21 17  1  0  0  0
 17 13  1  0  0  0
 13 14  1  0  0  0
 14 15  2  0  0  0
 14  1  1  0  0  0
  1  2  1  0  0  0
  2  3  1  0  0  0
  3  4  1  0  0  0
  4  5  1  0  0  0
  5  6  1  0  0  0
  6  7  1  0  0  0
  7  8  1  0  0  0
  7 30  1  0  0  0
 30 31  1  0  0  0
 31 32  2  0  0  0
 32 33  1  0  0  0
 33 34  2  0  0  0
 34 35  1  0  0  0
 35 36  2  0  0  0
  7  9  1  0  0  0
  9 10  2  0  0  0
  9 11  1  0  0  0
 21 22  1  0  0  0
 22 23  2  0  0  0
 23 18  1  0  0  0
 11  1  1  0  0  0
 11  4  1  0  0  0
 36 31  1  0  0  0
 24 27  1  0  0  0
 26 28  1  0  0  0
 26 29  1  0  0  0
 13 16  1  0  0  0
  8 12  1  0  0  0
M  END
> <minimizedAffinity>
-7.34909

> <CNNscore>
0.3672719598

> <CNNaffinity>
5.4331231117

> <CNN_VS>
1.9954338074

> <CNNaffinity_variance>
0.1443728209

$$$$
[H]N=C(c1c([H])c([H])c(C([H])([H])N([H])C(=O)C2([H])N3C(=O)[C@](O[H])(C([H])([H])c4c([H])c([H])c([H])c([H])c4[H])C([H])([H])C([H])([H])[C@]3([H])C([H])([H])C2([H])[H])c([H])c1[H])N([H])[H]


 36 39  0  0  0  0  0  0  0  0999 V2000
   35.8637  -18.0520   35.7480 C   0  0  0  0  0  0  0  0  0  0  0  0
   36.7603  -18.0792   34.5283 C   0  0  0  0  0  0  0  0  0  0  0  0
   38.0016  -18.7491   35.0976 C   0  0  0  0  0  0  0  0  0  0  0  0
   37.3865  -19.8886   35.8775 C   0  0  0  0  0  0  0  0  0  0  0  0
   38.2693  -20.3423   37.0095 C   0  0  0  0  0  0  0  0  0  0  0  0
   37.5727  -21.3140   37.9041 C   0  0  0  0  0  0  0  0  0  0  0  0
   36.0927  -21.4270   37.6679 C   0  0  0  0  0  0  0  0  0  0  0  0
   35.8170  -22.2413   36.5564 O   0  0  0  0  0  0  0  0  0  0  0  0
   35.5453  -20.0589   37.4718 C   0  0  0  0  0  0  0  0  0  0  0  0
   34.6221  -19.5554   38.1382 O   0  0  0  0  0  0  0  0  0  0  0  0
   36.1566  -19.2936   36.4231 N   0  0  0  0  0  0  0  0  0  0  0  0
   36.5304  -22.9465   36.5729 H   0  0  0  0  0  0  0  0  0  0  0  0
   36.4008  -15.6244   35.8883 N   0  0  0  0  0  0  0  0  0  0  0  0
   36.3118  -16.8680   36.5649 C   0  0  0  0  0  0  0  0  0  0  0  0
   36.5918  -16.9613   37.7673 O   0  0  0  0  0  0  0  0  0  0  0  0
   36.1657  -15.5294   34.8590 H   0  0  0  0  0  0  0  0  0  0  0  0
   36.8148  -14.3913   36.5350 C   0  0  0  0  0  0  0  0  0  0  0  0
   33.3789  -12.0435   37.4845 C   0  0  0  0  0  0  0  0  0  0  0  0
   33.4905  -13.3451   37.8867 C   0  0  0  0  0  0  0  0  0  0  0  0
   34.5923  -14.1441   37.6011 C   0  0  0  0  0  0  0  0  0  0  0  0
   35.6169  -13.5992   36.8801 C   0  0  0  0  0  0  0  0  0  0  0  0
   35.5325  -12.2953   36.4630 C   0  0  0  0  0  0  0  0  0  0  0  0
   34.4320  -11.4988   36.7490 C   0  0  0  0  0  0  0  0  0  0  0  0
   32.1031   -9.9737   37.5440 N   0  0  0  0  0  0  0  0  0  0  0  0
   32.2166  -11.2235   37.7932 C   0  0  0  0  0  0  0  0  0  0  0  0
   31.0772  -11.8273   38.4314 N   0  0  0  0  0  0  0  0  0  0  0  0
   32.8792   -9.4710   37.0876 H   0  0  0  0  0  0  0  0  0  0  0  0
   30.5288  -12.5702   37.9491 H   0  0  0  0  0  0  0  0  0  0  0  0
   30.8120  -11.5054   39.3871 H   0  0  0  0  0  0  0  0  0  0  0  0
   35.4514  -22.1059   38.8552 C   0  0  0  0  0  0  0  0  0  0  0  0
   36.2991  -22.1197   40.0452 C   0  0  0  0  0  0  0  0  0  0  0  0
   37.2811  -23.0647   40.2687 C   0  0  0  0  0  0  0  0  0  0  0  0
   38.0637  -23.0466   41.4123 C   0  0  0  0  0  0  0  0  0  0  0  0
   37.8762  -22.0704   42.3661 C   0  0  0  0  0  0  0  0  0  0  0  0
   36.9114  -21.1278   42.1643 C   0  0  0  0  0  0  0  0  0  0  0  0
   36.1288  -21.1524   41.0125 C   0  0  0  0  0  0  0  0  0  0  0  0
 24 25  2  0  0  0
 25 26  1  0  0  0
 25 18  1  0  0  0
 18 19  2  0  0  0
 19 20  1  0  0  0
 20 21  2  0  0  0
 21 17  1  0  0  0
 17 13  1  0  0  0
 13 14  1  0  0  0
 14 15  2  0  0  0
 14  1  1  0  0  0
  1  2  1  0  0  0
  2  3  1  0  0  0
  3  4  1  0  0  0
  4  5  1  0  0  0
  5  6  1  0  0  0
  6  7  1  0  0  0
  7  8  1  0  0  0
  7 30  1  0  0  0
 30 31  1  0  0  0
 31 32  2  0  0  0
 32 33  1  0  0  0
 33 34  2  0  0  0
 34 35  1  0  0  0
 35 36  2  0  0  0
  7  9  1  0  0  0
  9 10  2  0  0  0
  9 11  1  0  0  0
 21 22  1  0  0  0
 22 23  2  0  0  0
 23 18  1  0  0  0
 11  1  1  0  0  0
 11  4  1  0  0  0
 36 31  1  0  0  0
 24 27  1  0  0  0
 26 28  1  0  0  0
 26 29  1  0  0  0
 13 16  1  0  0  0
  8 12  1  0  0  0
M  END
> <minimizedAffinity>
-7.19769

> <CNNscore>
0.3664838076

> <CNNaffinity>
5.2692046165

> <CNN_VS>
1.9310781956

> <CNNaffinity_variance>
0.3410909772

$$$$
[H]N=C(c1c([H])c([H])c(C([H])([H])N([H])C(=O)C2([H])N3C(=O)[C@](O[H])(C([H])([H])c4c([H])c([H])c([H])c([H])c4[H])C([H])([H])C([H])([H])[C@]3([H])C([H])([H])C2([H])[H])c([H])c1[H])N([H])[H]


 36 39  0  0  0  0  0  0  0  0999 V2000
   39.2796  -19.8002   34.2227 C   0  0  0  0  0  0  0  0  0  0  0  0
   40.2258  -19.2745   33.1641 C   0  0  0  0  0  0  0  0  0  0  0  0
   41.1481  -18.4067   34.0067 C   0  0  0  0  0  0  0  0  0  0  0  0
   41.4144  -19.3195   35.1818 C   0  0  0  0  0  0  0  0  0  0  0  0
   41.7708  -18.5514   36.4267 C   0  0  0  0  0  0  0  0  0  0  0  0
   41.8222  -19.4340   37.6302 C   0  0  0  0  0  0  0  0  0  0  0  0
   41.2543  -20.8094   37.4181 C   0  0  0  0  0  0  0  0  0  0  0  0
   42.1744  -21.6421   36.7589 O   0  0  0  0  0  0  0  0  0  0  0  0
   39.9987  -20.6802   36.6328 C   0  0  0  0  0  0  0  0  0  0  0  0
   38.8862  -21.1129   36.9862 O   0  0  0  0  0  0  0  0  0  0  0  0
   40.1233  -19.9974   35.3768 N   0  0  0  0  0  0  0  0  0  0  0  0
   43.0719  -21.3529   37.1016 H   0  0  0  0  0  0  0  0  0  0  0  0
   37.8930  -18.4721   35.8087 N   0  0  0  0  0  0  0  0  0  0  0  0
   38.2754  -18.7027   34.4622 C   0  0  0  0  0  0  0  0  0  0  0  0
   37.7994  -18.0281   33.5397 O   0  0  0  0  0  0  0  0  0  0  0  0
   38.2910  -19.0424   36.6088 H   0  0  0  0  0  0  0  0  0  0  0  0
   36.9385  -17.4511   36.2041 C   0  0  0  0  0  0  0  0  0  0  0  0
   32.9662  -18.9526   35.7732 C   0  0  0  0  0  0  0  0  0  0  0  0
   33.9164  -19.6334   36.4818 C   0  0  0  0  0  0  0  0  0  0  0  0
   35.2202  -19.1796   36.6485 C   0  0  0  0  0  0  0  0  0  0  0  0
   35.5698  -17.9906   36.0733 C   0  0  0  0  0  0  0  0  0  0  0  0
   34.6370  -17.2854   35.3564 C   0  0  0  0  0  0  0  0  0  0  0  0
   33.3357  -17.7397   35.1909 C   0  0  0  0  0  0  0  0  0  0  0  0
   30.5993  -18.7393   35.2561 N   0  0  0  0  0  0  0  0  0  0  0  0
   31.6062  -19.4450   35.6098 C   0  0  0  0  0  0  0  0  0  0  0  0
   31.3252  -20.8345   35.8552 N   0  0  0  0  0  0  0  0  0  0  0  0
   30.7223  -17.7339   35.0625 H   0  0  0  0  0  0  0  0  0  0  0  0
   31.7538  -21.5767   35.2632 H   0  0  0  0  0  0  0  0  0  0  0  0
   30.6831  -21.0828   36.6384 H   0  0  0  0  0  0  0  0  0  0  0  0
   40.9941  -21.4508   38.7607 C   0  0  0  0  0  0  0  0  0  0  0  0
   41.7333  -20.8277   39.8562 C   0  0  0  0  0  0  0  0  0  0  0  0
   41.1926  -19.8690   40.6903 C   0  0  0  0  0  0  0  0  0  0  0  0
   41.9270  -19.2984   41.7178 C   0  0  0  0  0  0  0  0  0  0  0  0
   43.2327  -19.6809   41.9328 C   0  0  0  0  0  0  0  0  0  0  0  0
   43.7855  -20.6263   41.1201 C   0  0  0  0  0  0  0  0  0  0  0  0
   43.0413  -21.1953   40.0895 C   0  0  0  0  0  0  0  0  0  0  0  0
 24 25  2  0  0  0
 25 26  1  0  0  0
 25 18  1  0  0  0
 18 19  2  0  0  0
 19 20  1  0  0  0
 20 21  2  0  0  0
 21 17  1  0  0  0
 17 13  1  0  0  0
 13 14  1  0  0  0
 14 15  2  0  0  0
 14  1  1  0  0  0
  1  2  1  0  0  0
  2  3  1  0  0  0
  3  4  1  0  0  0
  4  5  1  0  0  0
  5  6  1  0  0  0
  6  7  1  0  0  0
  7  8  1  0  0  0
  7 30  1  0  0  0
 30 31  1  0  0  0
 31 32  2  0  0  0
 32 33  1  0  0  0
 33 34  2  0  0  0
 34 35  1  0  0  0
 35 36  2  0  0  0
  7  9  1  0  0  0
  9 10  2  0  0  0
  9 11  1  0  0  0
 21 22  1  0  0  0
 22 23  2  0  0  0
 23 18  1  0  0  0
 11  1  1  0  0  0
 11  4  1  0  0  0
 36 31  1  0  0  0
 24 27  1  0  0  0
 26 28  1  0  0  0
 26 29  1  0  0  0
 13 16  1  0  0  0
  8 12  1  0  0  0
M  END
> <minimizedAffinity>
-6.19554

> <CNNscore>
0.3590183854

> <CNNaffinity>
4.8269410133

> <CNN_VS>
1.7329605818

> <CNNaffinity_variance>
0.2166313380

$$$$
[H]N=C(c1c([H])c([H])c(C([H])([H])N([H])C(=O)C2([H])N3C(=O)[C@](O[H])(C([H])([H])c4c([H])c([H])c([H])c([H])c4[H])C([H])([H])C([H])([H])[C@]3([H])C([H])([H])C2([H])[H])c([H])c1[H])N([H])[H]


 36 39  0  0  0  0  0  0  0  0999 V2000
   36.1980  -16.7660   35.6428 C   0  0  0  0  0  0  0  0  0  0  0  0
   37.4870  -17.4576   36.0331 C   0  0  0  0  0  0  0  0  0  0  0  0
   36.9516  -18.6387   36.8281 C   0  0  0  0  0  0  0  0  0  0  0  0
   35.8290  -19.1089   35.9316 C   0  0  0  0  0  0  0  0  0  0  0  0
   34.7582  -19.8377   36.6990 C   0  0  0  0  0  0  0  0  0  0  0  0
   33.5565  -20.1108   35.8557 C   0  0  0  0  0  0  0  0  0  0  0  0
   33.5412  -19.3841   34.5401 C   0  0  0  0  0  0  0  0  0  0  0  0
   34.3593  -20.0270   33.5957 O   0  0  0  0  0  0  0  0  0  0  0  0
   33.9957  -17.9879   34.7725 C   0  0  0  0  0  0  0  0  0  0  0  0
   33.3526  -16.9662   34.4687 O   0  0  0  0  0  0  0  0  0  0  0  0
   35.2805  -17.8527   35.3973 N   0  0  0  0  0  0  0  0  0  0  0  0
   34.2678  -21.0046   33.8017 H   0  0  0  0  0  0  0  0  0  0  0  0
   34.6918  -15.0678   36.6671 N   0  0  0  0  0  0  0  0  0  0  0  0
   35.7799  -15.9602   36.8454 C   0  0  0  0  0  0  0  0  0  0  0  0
   36.3487  -16.0615   37.9403 O   0  0  0  0  0  0  0  0  0  0  0  0
   34.1958  -14.9693   35.7353 H   0  0  0  0  0  0  0  0  0  0  0  0
   34.1689  -14.2241   37.7276 C   0  0  0  0  0  0  0  0  0  0  0  0
   34.6145  -10.1527   36.5257 C   0  0  0  0  0  0  0  0  0  0  0  0
   33.6933  -10.5258   37.4641 C   0  0  0  0  0  0  0  0  0  0  0  0
   33.5169  -11.8393   37.8855 C   0  0  0  0  0  0  0  0  0  0  0  0
   34.3058  -12.8077   37.3320 C   0  0  0  0  0  0  0  0  0  0  0  0
   35.2390  -12.4626   36.3879 C   0  0  0  0  0  0  0  0  0  0  0  0
   35.4141  -11.1510   35.9682 C   0  0  0  0  0  0  0  0  0  0  0  0
   35.8802   -8.2484   35.6969 N   0  0  0  0  0  0  0  0  0  0  0  0
   34.7836   -8.7719   36.0974 C   0  0  0  0  0  0  0  0  0  0  0  0
   33.6496   -7.8864   36.1086 N   0  0  0  0  0  0  0  0  0  0  0  0
   36.7369   -8.8211   35.6612 H   0  0  0  0  0  0  0  0  0  0  0  0
   32.8291   -8.0647   35.4920 H   0  0  0  0  0  0  0  0  0  0  0  0
   33.6666   -7.0622   36.7472 H   0  0  0  0  0  0  0  0  0  0  0  0
   32.1414  -19.4145   33.9731 C   0  0  0  0  0  0  0  0  0  0  0  0
   31.2593  -20.3613   34.6516 C   0  0  0  0  0  0  0  0  0  0  0  0
   30.1277  -19.9827   35.3469 C   0  0  0  0  0  0  0  0  0  0  0  0
   29.3168  -20.9108   35.9807 C   0  0  0  0  0  0  0  0  0  0  0  0
   29.6266  -22.2521   35.9303 C   0  0  0  0  0  0  0  0  0  0  0  0
   30.7401  -22.6467   35.2487 C   0  0  0  0  0  0  0  0  0  0  0  0
   31.5503  -21.7083   34.6142 C   0  0  0  0  0  0  0  0  0  0  0  0
 24 25  2  0  0  0
 25 26  1  0  0  0
 25 18  1  0  0  0
 18 19  2  0  0  0
 19 20  1  0  0  0
 20 21  2  0  0  0
 21 17  1  0  0  0
 17 13  1  0  0  0
 13 14  1  0  0  0
 14 15  2  0  0  0
 14  1  1  0  0  0
  1  2  1  0  0  0
  2  3  1  0  0  0
  3  4  1  0  0  0
  4  5  1  0  0  0
  5  6  1  0  0  0
  6  7  1  0  0  0
  7  8  1  0  0  0
  7 30  1  0  0  0
 30 31  1  0  0  0
 31 32  2  0  0  0
 32 33  1  0  0  0
 33 34  2  0  0  0
 34 35  1  0  0  0
 35 36  2  0  0  0
  7  9  1  0  0  0
  9 10  2  0  0  0
  9 11  1  0  0  0
 21 22  1  0  0  0
 22 23  2  0  0  0
 23 18  1  0  0  0
 11  1  1  0  0  0
 11  4  1  0  0  0
 36 31  1  0  0  0
 24 27  1  0  0  0
 26 28  1  0  0  0
 26 29  1  0  0  0
 13 16  1  0  0  0
  8 12  1  0  0  0
M  END
> <minimizedAffinity>
-8.67819

> <CNNscore>
0.3394521177

> <CNNaffinity>
5.5650939941

> <CNN_VS>
1.8890829086

> <CNNaffinity_variance>
0.0671580061

$$$$
[H]N=C(c1c([H])c([H])c(C([H])([H])N([H])C(=O)C2([H])N3C(=O)[C@](O[H])(C([H])([H])c4c([H])c([H])c([H])c([H])c4[H])C([H])([H])C([H])([H])[C@]3([H])C([H])([H])C2([H])[H])c([H])c1[H])N([H])[H]


 36 39  0  0  0  0  0  0  0  0999 V2000
   35.9274  -18.6569   36.4878 C   0  0  0  0  0  0  0  0  0  0  0  0
   36.0053  -17.1743   36.7844 C   0  0  0  0  0  0  0  0  0  0  0  0
   35.2765  -16.6003   35.5790 C   0  0  0  0  0  0  0  0  0  0  0  0
   34.0751  -17.5143   35.5019 C   0  0  0  0  0  0  0  0  0  0  0  0
   33.5128  -17.5949   34.1076 C   0  0  0  0  0  0  0  0  0  0  0  0
   32.4685  -18.6556   33.9886 C   0  0  0  0  0  0  0  0  0  0  0  0
   32.3889  -19.5857   35.1666 C   0  0  0  0  0  0  0  0  0  0  0  0
   31.6822  -18.9987   36.2297 O   0  0  0  0  0  0  0  0  0  0  0  0
   33.7734  -19.9359   35.5794 C   0  0  0  0  0  0  0  0  0  0  0  0
   34.2207  -21.0939   35.6732 O   0  0  0  0  0  0  0  0  0  0  0  0
   34.6270  -18.8234   35.8843 N   0  0  0  0  0  0  0  0  0  0  0  0
   30.9729  -18.4426   35.7890 H   0  0  0  0  0  0  0  0  0  0  0  0
   38.3552  -18.6928   35.9345 N   0  0  0  0  0  0  0  0  0  0  0  0
   37.0280  -18.9396   35.4984 C   0  0  0  0  0  0  0  0  0  0  0  0
   36.8002  -19.3658   34.3587 O   0  0  0  0  0  0  0  0  0  0  0  0
   38.5657  -18.3266   36.9068 H   0  0  0  0  0  0  0  0  0  0  0  0
   39.5240  -18.9164   35.1015 C   0  0  0  0  0  0  0  0  0  0  0  0
   42.8109  -20.2049   37.5006 C   0  0  0  0  0  0  0  0  0  0  0  0
   41.9053  -19.2891   37.9586 C   0  0  0  0  0  0  0  0  0  0  0  0
   40.8201  -18.8440   37.2115 C   0  0  0  0  0  0  0  0  0  0  0  0
   40.6506  -19.3486   35.9532 C   0  0  0  0  0  0  0  0  0  0  0  0
   41.5436  -20.2692   35.4672 C   0  0  0  0  0  0  0  0  0  0  0  0
   42.6265  -20.7127   36.2142 C   0  0  0  0  0  0  0  0  0  0  0  0
   44.4323  -21.8392   38.2851 N   0  0  0  0  0  0  0  0  0  0  0  0
   43.9410  -20.6578   38.2983 C   0  0  0  0  0  0  0  0  0  0  0  0
   44.5907  -19.7336   39.1892 N   0  0  0  0  0  0  0  0  0  0  0  0
   44.0196  -22.5576   37.6712 H   0  0  0  0  0  0  0  0  0  0  0  0
   45.0823  -18.8934   38.8183 H   0  0  0  0  0  0  0  0  0  0  0  0
   44.5590  -19.9227   40.2141 H   0  0  0  0  0  0  0  0  0  0  0  0
   31.6090  -20.8182   34.7735 C   0  0  0  0  0  0  0  0  0  0  0  0
   30.6204  -21.2235   35.7701 C   0  0  0  0  0  0  0  0  0  0  0  0
   29.3298  -20.7331   35.8046 C   0  0  0  0  0  0  0  0  0  0  0  0
   28.4208  -21.1398   36.7683 C   0  0  0  0  0  0  0  0  0  0  0  0
   28.7904  -22.0564   37.7280 C   0  0  0  0  0  0  0  0  0  0  0  0
   30.0605  -22.5528   37.7114 C   0  0  0  0  0  0  0  0  0  0  0  0
   30.9686  -22.1394   36.7397 C   0  0  0  0  0  0  0  0  0  0  0  0
 24 25  2  0  0  0
 25 26  1  0  0  0
 25 18  1  0  0  0
 18 19  2  0  0  0
 19 20  1  0  0  0
 20 21  2  0  0  0
 21 17  1  0  0  0
 17 13  1  0  0  0
 13 14  1  0  0  0
 14 15  2  0  0  0
 14  1  1  0  0  0
  1  2  1  0  0  0
  2  3  1  0  0  0
  3  4  1  0  0  0
  4  5  1  0  0  0
  5  6  1  0  0  0
  6  7  1  0  0  0
  7  8  1  0  0  0
  7 30  1  0  0  0
 30 31  1  0  0  0
 31 32  2  0  0  0
 32 33  1  0  0  0
 33 34  2  0  0  0
 34 35  1  0  0  0
 35 36  2  0  0  0
  7  9  1  0  0  0
  9 10  2  0  0  0
  9 11  1  0  0  0
 21 22  1  0  0  0
 22 23  2  0  0  0
 23 18  1  0  0  0
 11  1  1  0  0  0
 11  4  1  0  0  0
 36 31  1  0  0  0
 24 27  1  0  0  0
 26 28  1  0  0  0
 26 29  1  0  0  0
 13 16  1  0  0  0
  8 12  1  0  0  0
M  END
> <minimizedAffinity>
-6.09365

> <CNNscore>
0.3279367387

> <CNNaffinity>
4.7920980453

> <CNN_VS>
1.5715049505

> <CNNaffinity_variance>
0.3216314614

$$$$
[H]N=C(c1c([H])c([H])c(C([H])([H])N([H])C(=O)C2([H])N3C(=O)[C@](O[H])(C([H])([H])c4c([H])c([H])c([H])c([H])c4[H])C([H])([H])C([H])([H])[C@]3([H])C([H])([H])C2([H])[H])c([H])c1[H])N([H])[H]


 36 39  0  0  0  0  0  0  0  0999 V2000
   35.8672  -18.4324   37.3752 C   0  0  0  0  0  0  0  0  0  0  0  0
   35.9165  -16.9338   37.1653 C   0  0  0  0  0  0  0  0  0  0  0  0
   35.6367  -16.8422   35.6730 C   0  0  0  0  0  0  0  0  0  0  0  0
   34.4806  -17.8058   35.5332 C   0  0  0  0  0  0  0  0  0  0  0  0
   34.3876  -18.3820   34.1454 C   0  0  0  0  0  0  0  0  0  0  0  0
   33.3867  -19.4874   34.0671 C   0  0  0  0  0  0  0  0  0  0  0  0
   32.8929  -19.9756   35.4001 C   0  0  0  0  0  0  0  0  0  0  0  0
   31.9133  -19.1155   35.9244 O   0  0  0  0  0  0  0  0  0  0  0  0
   34.0562  -20.0778   36.3200 C   0  0  0  0  0  0  0  0  0  0  0  0
   34.3954  -21.1069   36.9329 O   0  0  0  0  0  0  0  0  0  0  0  0
   34.8199  -18.8742   36.4860 N   0  0  0  0  0  0  0  0  0  0  0  0
   31.4080  -18.7850   35.1231 H   0  0  0  0  0  0  0  0  0  0  0  0
   37.5309  -20.2845   37.3189 N   0  0  0  0  0  0  0  0  0  0  0  0
   37.2107  -18.9560   36.9383 C   0  0  0  0  0  0  0  0  0  0  0  0
   38.0055  -18.2721   36.2801 O   0  0  0  0  0  0  0  0  0  0  0  0
   36.8612  -20.8816   37.8835 H   0  0  0  0  0  0  0  0  0  0  0  0
   38.7837  -20.9340   36.9742 C   0  0  0  0  0  0  0  0  0  0  0  0
   41.7585  -19.8029   39.8186 C   0  0  0  0  0  0  0  0  0  0  0  0
   41.8026  -19.3666   38.5240 C   0  0  0  0  0  0  0  0  0  0  0  0
   40.8539  -19.7089   37.5667 C   0  0  0  0  0  0  0  0  0  0  0  0
   39.8235  -20.5248   37.9400 C   0  0  0  0  0  0  0  0  0  0  0  0
   39.7533  -20.9780   39.2327 C   0  0  0  0  0  0  0  0  0  0  0  0
   40.7012  -20.6353   40.1873 C   0  0  0  0  0  0  0  0  0  0  0  0
   43.2547  -18.2629   40.9609 N   0  0  0  0  0  0  0  0  0  0  0  0
   42.7620  -19.4335   40.8061 C   0  0  0  0  0  0  0  0  0  0  0  0
   43.2702  -20.4363   41.7039 N   0  0  0  0  0  0  0  0  0  0  0  0
   42.9395  -17.4912   40.3540 H   0  0  0  0  0  0  0  0  0  0  0  0
   42.6424  -20.9006   42.3935 H   0  0  0  0  0  0  0  0  0  0  0  0
   44.2806  -20.6884   41.6498 H   0  0  0  0  0  0  0  0  0  0  0  0
   32.2214  -21.3165   35.2194 C   0  0  0  0  0  0  0  0  0  0  0  0
   30.9733  -21.4477   35.9678 C   0  0  0  0  0  0  0  0  0  0  0  0
   29.7899  -20.8479   35.5845 C   0  0  0  0  0  0  0  0  0  0  0  0
   28.6262  -20.9934   36.3229 C   0  0  0  0  0  0  0  0  0  0  0  0
   28.6244  -21.7511   37.4733 C   0  0  0  0  0  0  0  0  0  0  0  0
   29.7830  -22.3519   37.8690 C   0  0  0  0  0  0  0  0  0  0  0  0
   30.9487  -22.2012   37.1219 C   0  0  0  0  0  0  0  0  0  0  0  0
 24 25  2  0  0  0
 25 26  1  0  0  0
 25 18  1  0  0  0
 18 19  2  0  0  0
 19 20  1  0  0  0
 20 21  2  0  0  0
 21 17  1  0  0  0
 17 13  1  0  0  0
 13 14  1  0  0  0
 14 15  2  0  0  0
 14  1  1  0  0  0
  1  2  1  0  0  0
  2  3  1  0  0  0
  3  4  1  0  0  0
  4  5  1  0  0  0
  5  6  1  0  0  0
  6  7  1  0  0  0
  7  8  1  0  0  0
  7 30  1  0  0  0
 30 31  1  0  0  0
 31 32  2  0  0  0
 32 33  1  0  0  0
 33 34  2  0  0  0
 34 35  1  0  0  0
 35 36  2  0  0  0
  7  9  1  0  0  0
  9 10  2  0  0  0
  9 11  1  0  0  0
 21 22  1  0  0  0
 22 23  2  0  0  0
 23 18  1  0  0  0
 11  1  1  0  0  0
 11  4  1  0  0  0
 36 31  1  0  0  0
 24 27  1  0  0  0
 26 28  1  0  0  0
 26 29  1  0  0  0
 13 16  1  0  0  0
  8 12  1  0  0  0
M  END
> <minimizedAffinity>
-6.76763

> <CNNscore>
0.3268834054

> <CNNaffinity>
4.5319366455

> <CNN_VS>
1.4814149141

> <CNNaffinity_variance>
0.6877955198

$$$$
[H]c1c(OC([H])([H])[H])c(C([H])([H])N(C([H])([H])[H])C([H])([H])[H])c([H])c(OC([H])([H])[H])c1-c1c([H])n(C([H])([H])[H])c(=O)c2c([H])c([H])c([H])c([H])c12


 26 28  0  0  0  0  0  0  0  0999 V2000
   34.3254  -15.5952   36.0856 C   0  0  0  0  0  0  0  0  0  0  0  0
   33.6786  -16.8178   35.7811 C   0  0  0  0  0  0  0  0  0  0  0  0
   34.4000  -17.9558   35.1872 C   0  0  0  0  0  0  0  0  0  0  0  0
   35.6746  -17.8040   34.9216 C   0  0  0  0  0  0  0  0  0  0  0  0
   36.3577  -16.5822   35.1509 C   0  0  0  0  0  0  0  0  0  0  0  0
   35.6871  -15.6000   35.6885 C   0  0  0  0  0  0  0  0  0  0  0  0
   33.6032  -19.1729   35.3540 C   0  0  0  0  0  0  0  0  0  0  0  0
   32.2665  -19.1977   34.7975 C   0  0  0  0  0  0  0  0  0  0  0  0
   31.2807  -20.0159   35.3061 N   0  0  0  0  0  0  0  0  0  0  0  0
   29.9462  -20.0666   34.8693 C   0  0  0  0  0  0  0  0  0  0  0  0
   31.7688  -20.6972   36.3034 C   0  0  0  0  0  0  0  0  0  0  0  0
   30.6956  -21.5151   36.7708 O   0  0  0  0  0  0  0  0  0  0  0  0
   32.8028  -20.8851   36.9864 C   0  0  0  0  0  0  0  0  0  0  0  0
   32.9917  -21.7503   38.0817 C   0  0  0  0  0  0  0  0  0  0  0  0
   34.4255  -21.6164   38.5258 C   0  0  0  0  0  0  0  0  0  0  0  0
   35.2539  -20.9298   38.0762 C   0  0  0  0  0  0  0  0  0  0  0  0
   35.1017  -20.0197   36.9611 C   0  0  0  0  0  0  0  0  0  0  0  0
   33.8944  -20.0197   36.4537 C   0  0  0  0  0  0  0  0  0  0  0  0
   33.3730  -13.5183   37.2353 C   0  0  0  0  0  0  0  0  0  0  0  0
   33.8926  -14.5327   36.6779 O   0  0  0  0  0  0  0  0  0  0  0  0
   36.4785  -18.8590   34.4132 O   0  0  0  0  0  0  0  0  0  0  0  0
   37.7696  -18.3424   34.0758 C   0  0  0  0  0  0  0  0  0  0  0  0
   36.3464  -14.3130   36.0766 C   0  0  0  0  0  0  0  0  0  0  0  0
   37.2464  -14.1595   37.0891 N   0  0  0  0  0  0  0  0  0  0  0  0
   36.9091  -15.0268   38.1978 C   0  0  0  0  0  0  0  0  0  0  0  0
   38.1966  -13.2378   37.3743 C   0  0  0  0  0  0  0  0  0  0  0  0
 19 20  1  0  0  0
 20  1  1  0  0  0
  1  2  2  0  0  0
  2  3  1  0  0  0
  3  7  1  0  0  0
  7  8  2  0  0  0
  8  9  1  0  0  0
  9 10  1  0  0  0
  9 11  1  0  0  0
 11 12  2  0  0  0
 11 13  1  0  0  0
 13 14  2  0  0  0
 14 15  1  0  0  0
 15 16  2  0  0  0
 16 17  1  0  0  0
 17 18  2  0  0  0
  3  4  2  0  0  0
  4 21  1  0  0  0
 21 22  1  0  0  0
  4  5  1  0  0  0
  5  6  2  0  0  0
  6 23  1  0  0  0
 23 24  1  0  0  0
 24 25  1  0  0  0
 24 26  1  0  0  0
  6  1  1  0  0  0
 18  7  1  0  0  0
 18 13  1  0  0  0
M  END
> <minimizedAffinity>
-6.18685

> <CNNscore>
0.5343278646

> <CNNaffinity>
4.9854631424

> <CNN_VS>
2.6638717651

> <CNNaffinity_variance>
0.8429361582

$$$$
[H]c1c(OC([H])([H])[H])c(C([H])([H])N(C([H])([H])[H])C([H])([H])[H])c([H])c(OC([H])([H])[H])c1-c1c([H])n(C([H])([H])[H])c(=O)c2c([H])c([H])c([H])c([H])c12


 26 28  0  0  0  0  0  0  0  0999 V2000
   32.8609  -12.9772   36.8107 C   0  0  0  0  0  0  0  0  0  0  0  0
   33.1447  -14.2002   36.1552 C   0  0  0  0  0  0  0  0  0  0  0  0
   34.5240  -14.6647   35.9325 C   0  0  0  0  0  0  0  0  0  0  0  0
   35.5044  -13.8977   36.3435 C   0  0  0  0  0  0  0  0  0  0  0  0
   35.2779  -12.6365   36.9518 C   0  0  0  0  0  0  0  0  0  0  0  0
   34.0415  -12.2642   37.1418 C   0  0  0  0  0  0  0  0  0  0  0  0
   34.5067  -16.0932   35.6114 C   0  0  0  0  0  0  0  0  0  0  0  0
   33.2532  -16.6857   35.1933 C   0  0  0  0  0  0  0  0  0  0  0  0
   32.9885  -18.0274   35.3651 N   0  0  0  0  0  0  0  0  0  0  0  0
   31.7848  -18.6770   35.0433 C   0  0  0  0  0  0  0  0  0  0  0  0
   34.0159  -18.5924   35.9329 C   0  0  0  0  0  0  0  0  0  0  0  0
   33.6669  -19.9699   36.0738 O   0  0  0  0  0  0  0  0  0  0  0  0
   35.1607  -18.3730   36.3936 C   0  0  0  0  0  0  0  0  0  0  0  0
   36.0599  -19.2779   36.9908 C   0  0  0  0  0  0  0  0  0  0  0  0
   37.3072  -18.5115   37.3481 C   0  0  0  0  0  0  0  0  0  0  0  0
   37.5235  -17.3775   37.1834 C   0  0  0  0  0  0  0  0  0  0  0  0
   36.6269  -16.4113   36.5854 C   0  0  0  0  0  0  0  0  0  0  0  0
   35.4824  -16.9279   36.2133 C   0  0  0  0  0  0  0  0  0  0  0  0
   30.6389  -11.9915   37.6067 C   0  0  0  0  0  0  0  0  0  0  0  0
   31.7386  -12.4498   37.1707 O   0  0  0  0  0  0  0  0  0  0  0  0
   36.8680  -14.2823   36.2408 O   0  0  0  0  0  0  0  0  0  0  0  0
   37.6592  -13.4264   37.0710 C   0  0  0  0  0  0  0  0  0  0  0  0
   33.6999  -11.0070   37.8797 C   0  0  0  0  0  0  0  0  0  0  0  0
   33.7691   -9.7456   37.3671 N   0  0  0  0  0  0  0  0  0  0  0  0
   32.4832   -9.0892   37.4709 C   0  0  0  0  0  0  0  0  0  0  0  0
   34.6658   -9.0906   36.5921 C   0  0  0  0  0  0  0  0  0  0  0  0
 19 20  1  0  0  0
 20  1  1  0  0  0
  1  2  2  0  0  0
  2  3  1  0  0  0
  3  7  1  0  0  0
  7  8  2  0  0  0
  8  9  1  0  0  0
  9 10  1  0  0  0
  9 11  1  0  0  0
 11 12  2  0  0  0
 11 13  1  0  0  0
 13 14  2  0  0  0
 14 15  1  0  0  0
 15 16  2  0  0  0
 16 17  1  0  0  0
 17 18  2  0  0  0
  3  4  2  0  0  0
  4 21  1  0  0  0
 21 22  1  0  0  0
  4  5  1  0  0  0
  5  6  2  0  0  0
  6 23  1  0  0  0
 23 24  1  0  0  0
 24 25  1  0  0  0
 24 26  1  0  0  0
  6  1  1  0  0  0
 18  7  1  0  0  0
 18 13  1  0  0  0
M  END
> <minimizedAffinity>
-6.81492

> <CNNscore>
0.4825514555

> <CNNaffinity>
6.0595335960

> <CNN_VS>
2.9240367413

> <CNNaffinity_variance>
0.2158858776

$$$$
[H]c1c(OC([H])([H])[H])c(C([H])([H])N(C([H])([H])[H])C([H])([H])[H])c([H])c(OC([H])([H])[H])c1-c1c([H])n(C([H])([H])[H])c(=O)c2c([H])c([H])c([H])c([H])c12


 26 28  0  0  0  0  0  0  0  0999 V2000
   33.1933  -13.1743   37.4405 C   0  0  0  0  0  0  0  0  0  0  0  0
   33.6625  -14.4353   36.9983 C   0  0  0  0  0  0  0  0  0  0  0  0
   35.0641  -14.6518   36.6029 C   0  0  0  0  0  0  0  0  0  0  0  0
   35.8809  -13.6276   36.6500 C   0  0  0  0  0  0  0  0  0  0  0  0
   35.4505  -12.3300   37.0279 C   0  0  0  0  0  0  0  0  0  0  0  0
   34.2032  -12.1801   37.3819 C   0  0  0  0  0  0  0  0  0  0  0  0
   35.3437  -16.0890   36.5822 C   0  0  0  0  0  0  0  0  0  0  0  0
   36.6341  -16.5423   37.0582 C   0  0  0  0  0  0  0  0  0  0  0  0
   37.1949  -17.7254   36.6276 N   0  0  0  0  0  0  0  0  0  0  0  0
   38.4607  -18.2165   36.9897 C   0  0  0  0  0  0  0  0  0  0  0  0
   36.3864  -18.2927   35.7781 C   0  0  0  0  0  0  0  0  0  0  0  0
   37.0328  -19.5032   35.3830 O   0  0  0  0  0  0  0  0  0  0  0  0
   35.2854  -18.1637   35.1932 C   0  0  0  0  0  0  0  0  0  0  0  0
   34.6765  -19.0238   34.2586 C   0  0  0  0  0  0  0  0  0  0  0  0
   33.3482  -18.4201   33.8821 C   0  0  0  0  0  0  0  0  0  0  0  0
   32.8790  -17.4240   34.2660 C   0  0  0  0  0  0  0  0  0  0  0  0
   33.4722  -16.5064   35.2152 C   0  0  0  0  0  0  0  0  0  0  0  0
   34.6464  -16.8946   35.6463 C   0  0  0  0  0  0  0  0  0  0  0  0
   30.8744  -12.4819   38.2686 C   0  0  0  0  0  0  0  0  0  0  0  0
   32.0435  -12.8135   37.9042 O   0  0  0  0  0  0  0  0  0  0  0  0
   37.2661  -13.7428   36.3569 O   0  0  0  0  0  0  0  0  0  0  0  0
   38.0219  -13.3101   37.4923 C   0  0  0  0  0  0  0  0  0  0  0  0
   33.6827  -10.8785   37.9079 C   0  0  0  0  0  0  0  0  0  0  0  0
   33.7435   -9.6818   37.2576 N   0  0  0  0  0  0  0  0  0  0  0  0
   32.4442   -9.0438   37.2555 C   0  0  0  0  0  0  0  0  0  0  0  0
   34.6488   -9.1004   36.4353 C   0  0  0  0  0  0  0  0  0  0  0  0
 19 20  1  0  0  0
 20  1  1  0  0  0
  1  2  2  0  0  0
  2  3  1  0  0  0
  3  7  1  0  0  0
  7  8  2  0  0  0
  8  9  1  0  0  0
  9 10  1  0  0  0
  9 11  1  0  0  0
 11 12  2  0  0  0
 11 13  1  0  0  0
 13 14  2  0  0  0
 14 15  1  0  0  0
 15 16  2  0  0  0
 16 17  1  0  0  0
 17 18  2  0  0  0
  3  4  2  0  0  0
  4 21  1  0  0  0
 21 22  1  0  0  0
  4  5  1  0  0  0
  5  6  2  0  0  0
  6 23  1  0  0  0
 23 24  1  0  0  0
 24 25  1  0  0  0
 24 26  1  0  0  0
  6  1  1  0  0  0
 18  7  1  0  0  0
 18 13  1  0  0  0
M  END
> <minimizedAffinity>
-6.77351

> <CNNscore>
0.4810504317

> <CNNaffinity>
5.9016699791

> <CNN_VS>
2.8390009403

> <CNNaffinity_variance>
0.2503947914

$$$$
[H]c1c(OC([H])([H])[H])c(C([H])([H])N(C([H])([H])[H])C([H])([H])[H])c([H])c(OC([H])([H])[H])c1-c1c([H])n(C([H])([H])[H])c(=O)c2c([H])c([H])c([H])c([H])c12


 26 28  0  0  0  0  0  0  0  0999 V2000
   37.6098  -18.3788   34.7718 C   0  0  0  0  0  0  0  0  0  0  0  0
   36.7114  -17.3404   35.1186 C   0  0  0  0  0  0  0  0  0  0  0  0
   35.8084  -17.4440   36.2770 C   0  0  0  0  0  0  0  0  0  0  0  0
   35.8391  -18.5480   36.9831 C   0  0  0  0  0  0  0  0  0  0  0  0
   36.6761  -19.6422   36.6452 C   0  0  0  0  0  0  0  0  0  0  0  0
   37.4701  -19.5084   35.6180 C   0  0  0  0  0  0  0  0  0  0  0  0
   35.3076  -16.1114   36.6198 C   0  0  0  0  0  0  0  0  0  0  0  0
   34.0478  -15.6852   36.0467 C   0  0  0  0  0  0  0  0  0  0  0  0
   33.7429  -14.3531   35.8666 N   0  0  0  0  0  0  0  0  0  0  0  0
   32.5748  -13.8492   35.2701 C   0  0  0  0  0  0  0  0  0  0  0  0
   34.7423  -13.6298   36.2849 C   0  0  0  0  0  0  0  0  0  0  0  0
   34.3516  -12.2736   36.0679 O   0  0  0  0  0  0  0  0  0  0  0  0
   35.8898  -13.6884   36.7858 C   0  0  0  0  0  0  0  0  0  0  0  0
   36.7602  -12.6338   37.1236 C   0  0  0  0  0  0  0  0  0  0  0  0
   38.0046  -13.2426   37.7165 C   0  0  0  0  0  0  0  0  0  0  0  0
   38.2434  -14.3726   37.8765 C   0  0  0  0  0  0  0  0  0  0  0  0
   37.3855  -15.4873   37.5354 C   0  0  0  0  0  0  0  0  0  0  0  0
   36.2465  -15.1202   37.0033 C   0  0  0  0  0  0  0  0  0  0  0  0
   39.4661  -18.4159   33.0125 C   0  0  0  0  0  0  0  0  0  0  0  0
   38.5246  -18.4387   33.8625 O   0  0  0  0  0  0  0  0  0  0  0  0
   35.0609  -18.7234   38.1584 O   0  0  0  0  0  0  0  0  0  0  0  0
   35.0364  -20.1128   38.5001 C   0  0  0  0  0  0  0  0  0  0  0  0
   38.4725  -20.5589   35.2528 C   0  0  0  0  0  0  0  0  0  0  0  0
   39.3670  -21.1299   36.1087 N   0  0  0  0  0  0  0  0  0  0  0  0
   40.4538  -20.2146   36.3850 C   0  0  0  0  0  0  0  0  0  0  0  0
   39.5832  -22.3950   36.5406 C   0  0  0  0  0  0  0  0  0  0  0  0
 19 20  1  0  0  0
 20  1  1  0  0  0
  1  2  2  0  0  0
  2  3  1  0  0  0
  3  7  1  0  0  0
  7  8  2  0  0  0
  8  9  1  0  0  0
  9 10  1  0  0  0
  9 11  1  0  0  0
 11 12  2  0  0  0
 11 13  1  0  0  0
 13 14  2  0  0  0
 14 15  1  0  0  0
 15 16  2  0  0  0
 16 17  1  0  0  0
 17 18  2  0  0  0
  3  4  2  0  0  0
  4 21  1  0  0  0
 21 22  1  0  0  0
  4  5  1  0  0  0
  5  6  2  0  0  0
  6 23  1  0  0  0
 23 24  1  0  0  0
 24 25  1  0  0  0
 24 26  1  0  0  0
  6  1  1  0  0  0
 18  7  1  0  0  0
 18 13  1  0  0  0
M  END
> <minimizedAffinity>
-4.55792

> <CNNscore>
0.4572236538

> <CNNaffinity>
4.8125200272

> <CNN_VS>
2.2003979683

> <CNNaffinity_variance>
0.1844586432

$$$$
[H]c1c(OC([H])([H])[H])c(C([H])([H])N(C([H])([H])[H])C([H])([H])[H])c([H])c(OC([H])([H])[H])c1-c1c([H])n(C([H])([H])[H])c(=O)c2c([H])c([H])c([H])c([H])c12


 26 28  0  0  0  0  0  0  0  0999 V2000
   36.8725  -21.2907   37.9125 C   0  0  0  0  0  0  0  0  0  0  0  0
   37.9486  -20.3788   37.7860 C   0  0  0  0  0  0  0  0  0  0  0  0
   39.3258  -20.8282   37.5225 C   0  0  0  0  0  0  0  0  0  0  0  0
   39.5434  -22.1173   37.4257 C   0  0  0  0  0  0  0  0  0  0  0  0
   38.5136  -23.0765   37.6030 C   0  0  0  0  0  0  0  0  0  0  0  0
   37.3040  -22.6389   37.8244 C   0  0  0  0  0  0  0  0  0  0  0  0
   40.1231  -19.6930   37.0540 C   0  0  0  0  0  0  0  0  0  0  0  0
   40.1065  -19.3820   35.6397 C   0  0  0  0  0  0  0  0  0  0  0  0
   41.1514  -18.7256   35.0257 N   0  0  0  0  0  0  0  0  0  0  0  0
   41.2478  -18.4323   33.6550 C   0  0  0  0  0  0  0  0  0  0  0  0
   42.0709  -18.4707   35.9127 C   0  0  0  0  0  0  0  0  0  0  0  0
   43.1099  -17.7940   35.2045 O   0  0  0  0  0  0  0  0  0  0  0  0
   42.3704  -18.6057   37.1223 C   0  0  0  0  0  0  0  0  0  0  0  0
   43.5374  -18.1922   37.7939 C   0  0  0  0  0  0  0  0  0  0  0  0
   43.3873  -18.5726   39.2442 C   0  0  0  0  0  0  0  0  0  0  0  0
   42.4898  -19.1157   39.7535 C   0  0  0  0  0  0  0  0  0  0  0  0
   41.2787  -19.5669   39.1019 C   0  0  0  0  0  0  0  0  0  0  0  0
   41.2526  -19.3053   37.8189 C   0  0  0  0  0  0  0  0  0  0  0  0
   34.3819  -20.8300   38.2694 C   0  0  0  0  0  0  0  0  0  0  0  0
   35.6048  -21.0903   38.0540 O   0  0  0  0  0  0  0  0  0  0  0  0
   40.8192  -22.6533   37.1052 O   0  0  0  0  0  0  0  0  0  0  0  0
   40.7906  -23.1608   35.7675 C   0  0  0  0  0  0  0  0  0  0  0  0
   36.1318  -23.5667   37.9081 C   0  0  0  0  0  0  0  0  0  0  0  0
   35.6719  -24.3533   36.8941 N   0  0  0  0  0  0  0  0  0  0  0  0
   34.2385  -24.2078   36.7548 C   0  0  0  0  0  0  0  0  0  0  0  0
   36.1971  -25.3807   36.1852 C   0  0  0  0  0  0  0  0  0  0  0  0
 19 20  1  0  0  0
 20  1  1  0  0  0
  1  2  2  0  0  0
  2  3  1  0  0  0
  3  7  1  0  0  0
  7  8  2  0  0  0
  8  9  1  0  0  0
  9 10  1  0  0  0
  9 11  1  0  0  0
 11 12  2  0  0  0
 11 13  1  0  0  0
 13 14  2  0  0  0
 14 15  1  0  0  0
 15 16  2  0  0  0
 16 17  1  0  0  0
 17 18  2  0  0  0
  3  4  2  0  0  0
  4 21  1  0  0  0
 21 22  1  0  0  0
  4  5  1  0  0  0
  5  6  2  0  0  0
  6 23  1  0  0  0
 23 24  1  0  0  0
 24 25  1  0  0  0
 24 26  1  0  0  0
  6  1  1  0  0  0
 18  7  1  0  0  0
 18 13  1  0  0  0
M  END
> <minimizedAffinity>
-4.16936

> <CNNscore>
0.4454525709

> <CNNaffinity>
4.3414888382

> <CNN_VS>
1.9339274168

> <CNNaffinity_variance>
0.1671649218

$$$$
[H]c1c(OC([H])([H])[H])c(C([H])([H])N(C([H])([H])[H])C([H])([H])[H])c([H])c(OC([H])([H])[H])c1-c1c([H])n(C([H])([H])[H])c(=O)c2c([H])c([H])c([H])c([H])c12


 26 28  0  0  0  0  0  0  0  0999 V2000
   34.5173  -16.0634   36.0383 C   0  0  0  0  0  0  0  0  0  0  0  0
   34.0414  -17.3872   36.2018 C   0  0  0  0  0  0  0  0  0  0  0  0
   34.9545  -18.5296   36.3722 C   0  0  0  0  0  0  0  0  0  0  0  0
   36.2439  -18.2943   36.3484 C   0  0  0  0  0  0  0  0  0  0  0  0
   36.7750  -16.9976   36.1284 C   0  0  0  0  0  0  0  0  0  0  0  0
   35.9339  -16.0089   35.9924 C   0  0  0  0  0  0  0  0  0  0  0  0
   34.2072  -19.6699   36.9063 C   0  0  0  0  0  0  0  0  0  0  0  0
   34.6448  -20.2486   38.1597 C   0  0  0  0  0  0  0  0  0  0  0  0
   34.3854  -21.5625   38.4853 N   0  0  0  0  0  0  0  0  0  0  0  0
   34.8167  -22.2232   39.6479 C   0  0  0  0  0  0  0  0  0  0  0  0
   33.7234  -22.1176   37.5103 C   0  0  0  0  0  0  0  0  0  0  0  0
   33.4935  -23.4657   37.9213 O   0  0  0  0  0  0  0  0  0  0  0  0
   33.2364  -21.9086   36.3744 C   0  0  0  0  0  0  0  0  0  0  0  0
   32.5452  -22.8017   35.5326 C   0  0  0  0  0  0  0  0  0  0  0  0
   32.1495  -22.0439   34.2916 C   0  0  0  0  0  0  0  0  0  0  0  0
   32.3633  -20.9266   34.0354 C   0  0  0  0  0  0  0  0  0  0  0  0
   33.0770  -19.9781   34.8635 C   0  0  0  0  0  0  0  0  0  0  0  0
   33.4917  -20.4887   35.9960 C   0  0  0  0  0  0  0  0  0  0  0  0
   33.1813  -13.8857   35.9168 C   0  0  0  0  0  0  0  0  0  0  0  0
   33.8860  -14.9395   35.9635 O   0  0  0  0  0  0  0  0  0  0  0  0
   37.2091  -19.3122   36.5719 O   0  0  0  0  0  0  0  0  0  0  0  0
   37.8868  -19.5921   35.3430 C   0  0  0  0  0  0  0  0  0  0  0  0
   36.3962  -14.5897   35.8738 C   0  0  0  0  0  0  0  0  0  0  0  0
   36.8400  -13.8139   36.9033 N   0  0  0  0  0  0  0  0  0  0  0  0
   36.1125  -12.5631   36.9405 C   0  0  0  0  0  0  0  0  0  0  0  0
   37.9292  -13.8469   37.7072 C   0  0  0  0  0  0  0  0  0  0  0  0
 19 20  1  0  0  0
 20  1  1  0  0  0
  1  2  2  0  0  0
  2  3  1  0  0  0
  3  7  1  0  0  0
  7  8  2  0  0  0
  8  9  1  0  0  0
  9 10  1  0  0  0
  9 11  1  0  0  0
 11 12  2  0  0  0
 11 13  1  0  0  0
 13 14  2  0  0  0
 14 15  1  0  0  0
 15 16  2  0  0  0
 16 17  1  0  0  0
 17 18  2  0  0  0
  3  4  2  0  0  0
  4 21  1  0  0  0
 21 22  1  0  0  0
  4  5  1  0  0  0
  5  6  2  0  0  0
  6 23  1  0  0  0
 23 24  1  0  0  0
 24 25  1  0  0  0
 24 26  1  0  0  0
  6  1  1  0  0  0
 18  7  1  0  0  0
 18 13  1  0  0  0
M  END
> <minimizedAffinity>
-5.39974

> <CNNscore>
0.4358972609

> <CNNaffinity>
4.9656348228

> <CNN_VS>
2.1645066738

> <CNNaffinity_variance>
0.2325382680

$$$$
[H]c1c(OC([H])([H])[H])c(C([H])([H])N(C([H])([H])[H])C([H])([H])[H])c([H])c(OC([H])([H])[H])c1-c1c([H])n(C([H])([H])[H])c(=O)c2c([H])c([H])c([H])c([H])c12


 26 28  0  0  0  0  0  0  0  0999 V2000
   34.3908  -20.1015   36.3066 C   0  0  0  0  0  0  0  0  0  0  0  0
   33.4085  -21.1183   36.3890 C   0  0  0  0  0  0  0  0  0  0  0  0
   32.1209  -21.0190   35.6817 C   0  0  0  0  0  0  0  0  0  0  0  0
   31.8893  -19.9387   34.9763 C   0  0  0  0  0  0  0  0  0  0  0  0
   32.8127  -18.8643   34.9077 C   0  0  0  0  0  0  0  0  0  0  0  0
   33.9475  -18.9940   35.5393 C   0  0  0  0  0  0  0  0  0  0  0  0
   31.4991  -22.3434   35.6221 C   0  0  0  0  0  0  0  0  0  0  0  0
   31.8734  -23.2272   34.5376 C   0  0  0  0  0  0  0  0  0  0  0  0
   31.0328  -24.2211   34.0847 N   0  0  0  0  0  0  0  0  0  0  0  0
   31.2863  -25.0860   33.0067 C   0  0  0  0  0  0  0  0  0  0  0  0
   29.9314  -24.1936   34.7799 C   0  0  0  0  0  0  0  0  0  0  0  0
   29.1204  -25.2454   34.2555 O   0  0  0  0  0  0  0  0  0  0  0  0
   29.3390  -23.5939   35.7075 C   0  0  0  0  0  0  0  0  0  0  0  0
   28.0558  -23.8347   36.2360 C   0  0  0  0  0  0  0  0  0  0  0  0
   27.8321  -22.8504   37.3549 C   0  0  0  0  0  0  0  0  0  0  0  0
   28.5592  -22.0230   37.7376 C   0  0  0  0  0  0  0  0  0  0  0  0
   29.8789  -21.7338   37.2186 C   0  0  0  0  0  0  0  0  0  0  0  0
   30.2285  -22.5157   36.2278 C   0  0  0  0  0  0  0  0  0  0  0  0
   36.7711  -20.0918   37.2429 C   0  0  0  0  0  0  0  0  0  0  0  0
   35.5931  -20.0455   36.7741 O   0  0  0  0  0  0  0  0  0  0  0  0
   30.7108  -19.7725   34.2008 O   0  0  0  0  0  0  0  0  0  0  0  0
   29.7824  -18.9624   34.9287 C   0  0  0  0  0  0  0  0  0  0  0  0
   35.0327  -17.9680   35.4319 C   0  0  0  0  0  0  0  0  0  0  0  0
   34.9742  -16.7001   35.9292 N   0  0  0  0  0  0  0  0  0  0  0  0
   36.0090  -16.5006   36.9215 C   0  0  0  0  0  0  0  0  0  0  0  0
   34.0499  -15.7114   35.8846 C   0  0  0  0  0  0  0  0  0  0  0  0
 19 20  1  0  0  0
 20  1  1  0  0  0
  1  2  2  0  0  0
  2  3  1  0  0  0
  3  7  1  0  0  0
  7  8  2  0  0  0
  8  9  1  0  0  0
  9 10  1  0  0  0
  9 11  1  0  0  0
 11 12  2  0  0  0
 11 13  1  0  0  0
 13 14  2  0  0  0
 14 15  1  0  0  0
 15 16  2  0  0  0
 16 17  1  0  0  0
 17 18  2  0  0  0
  3  4  2  0  0  0
  4 21  1  0  0  0
 21 22  1  0  0  0
  4  5  1  0  0  0
  5  6  2  0  0  0
  6 23  1  0  0  0
 23 24  1  0  0  0
 24 25  1  0  0  0
 24 26  1  0  0  0
  6  1  1  0  0  0
 18  7  1  0  0  0
 18 13  1  0  0  0
M  END
> <minimizedAffinity>
-4.90338

> <CNNscore>
0.4246553481

> <CNNaffinity>
4.4777345657

> <CNN_VS>
1.9014939070

> <CNNaffinity_variance>
0.6718310714

$$$$
[H]c1c(OC([H])([H])[H])c(C([H])([H])N(C([H])([H])[H])C([H])([H])[H])c([H])c(OC([H])([H])[H])c1-c1c([H])n(C([H])([H])[H])c(=O)c2c([H])c([H])c([H])c([H])c12


 26 28  0  0  0  0  0  0  0  0999 V2000
   32.2314  -20.5284   36.1789 C   0  0  0  0  0  0  0  0  0  0  0  0
   33.4510  -20.2382   36.8378 C   0  0  0  0  0  0  0  0  0  0  0  0
   34.4260  -21.2892   37.1738 C   0  0  0  0  0  0  0  0  0  0  0  0
   34.1267  -22.5269   36.8626 C   0  0  0  0  0  0  0  0  0  0  0  0
   32.8941  -22.8806   36.2564 C   0  0  0  0  0  0  0  0  0  0  0  0
   32.0604  -21.9199   35.9641 C   0  0  0  0  0  0  0  0  0  0  0  0
   35.7199  -20.6710   37.4700 C   0  0  0  0  0  0  0  0  0  0  0  0
   36.5367  -20.2271   36.3596 C   0  0  0  0  0  0  0  0  0  0  0  0
   37.9077  -20.1255   36.4586 N   0  0  0  0  0  0  0  0  0  0  0  0
   38.7832  -19.7596   35.4223 C   0  0  0  0  0  0  0  0  0  0  0  0
   38.2733  -20.4831   37.6568 C   0  0  0  0  0  0  0  0  0  0  0  0
   39.6948  -20.3498   37.6799 O   0  0  0  0  0  0  0  0  0  0  0  0
   37.8462  -20.8963   38.7603 C   0  0  0  0  0  0  0  0  0  0  0  0
   38.5729  -21.2187   39.9231 C   0  0  0  0  0  0  0  0  0  0  0  0
   37.5820  -21.6412   40.9769 C   0  0  0  0  0  0  0  0  0  0  0  0
   36.4216  -21.7086   40.8836 C   0  0  0  0  0  0  0  0  0  0  0  0
   35.6361  -21.3983   39.7081 C   0  0  0  0  0  0  0  0  0  0  0  0
   36.3606  -21.0076   38.6895 C   0  0  0  0  0  0  0  0  0  0  0  0
   30.4087  -19.0263   35.1971 C   0  0  0  0  0  0  0  0  0  0  0  0
   31.3052  -19.7489   35.7297 O   0  0  0  0  0  0  0  0  0  0  0  0
   35.0248  -23.6061   37.0790 O   0  0  0  0  0  0  0  0  0  0  0  0
   34.3721  -24.8332   36.7384 C   0  0  0  0  0  0  0  0  0  0  0  0
   30.7879  -22.1784   35.2186 C   0  0  0  0  0  0  0  0  0  0  0  0
   29.7776  -22.9925   35.6371 N   0  0  0  0  0  0  0  0  0  0  0  0
   29.0372  -22.3643   36.7107 C   0  0  0  0  0  0  0  0  0  0  0  0
   29.4819  -24.3007   35.4501 C   0  0  0  0  0  0  0  0  0  0  0  0
 19 20  1  0  0  0
 20  1  1  0  0  0
  1  2  2  0  0  0
  2  3  1  0  0  0
  3  7  1  0  0  0
  7  8  2  0  0  0
  8  9  1  0  0  0
  9 10  1  0  0  0
  9 11  1  0  0  0
 11 12  2  0  0  0
 11 13  1  0  0  0
 13 14  2  0  0  0
 14 15  1  0  0  0
 15 16  2  0  0  0
 16 17  1  0  0  0
 17 18  2  0  0  0
  3  4  2  0  0  0
  4 21  1  0  0  0
 21 22  1  0  0  0
  4  5  1  0  0  0
  5  6  2  0  0  0
  6 23  1  0  0  0
 23 24  1  0  0  0
 24 25  1  0  0  0
 24 26  1  0  0  0
  6  1  1  0  0  0
 18  7  1  0  0  0
 18 13  1  0  0  0
M  END
> <minimizedAffinity>
-4.06370

> <CNNscore>
0.3881222606

> <CNNaffinity>
4.2859821320

> <CNN_VS>
1.6634850502

> <CNNaffinity_variance>
0.2307218015

$$$$
[H]c1c(OC([H])([H])[H])c(C([H])([H])N(C([H])([H])[H])C([H])([H])[H])c([H])c(OC([H])([H])[H])c1-c1c([H])n(C([H])([H])[H])c(=O)c2c([H])c([H])c([H])c([H])c12


 26 28  0  0  0  0  0  0  0  0999 V2000
   36.7621  -15.2956   37.0867 C   0  0  0  0  0  0  0  0  0  0  0  0
   37.0585  -16.6460   37.3938 C   0  0  0  0  0  0  0  0  0  0  0  0
   36.2069  -17.7560   36.9347 C   0  0  0  0  0  0  0  0  0  0  0  0
   35.1358  -17.4613   36.2390 C   0  0  0  0  0  0  0  0  0  0  0  0
   34.7599  -16.1237   35.9538 C   0  0  0  0  0  0  0  0  0  0  0  0
   35.5458  -15.1677   36.3684 C   0  0  0  0  0  0  0  0  0  0  0  0
   36.9490  -19.0132   37.0486 C   0  0  0  0  0  0  0  0  0  0  0  0
   37.8377  -19.3839   35.9669 C   0  0  0  0  0  0  0  0  0  0  0  0
   38.1653  -20.6981   35.7111 N   0  0  0  0  0  0  0  0  0  0  0  0
   38.9709  -21.1551   34.6545 C   0  0  0  0  0  0  0  0  0  0  0  0
   37.5571  -21.4616   36.5738 C   0  0  0  0  0  0  0  0  0  0  0  0
   37.9457  -22.7960   36.2459 O   0  0  0  0  0  0  0  0  0  0  0  0
   36.7731  -21.4531   37.5517 C   0  0  0  0  0  0  0  0  0  0  0  0
   36.2766  -22.5422   38.2942 C   0  0  0  0  0  0  0  0  0  0  0  0
   35.3910  -21.9872   39.3798 C   0  0  0  0  0  0  0  0  0  0  0  0
   35.1339  -20.8702   39.5939 C   0  0  0  0  0  0  0  0  0  0  0  0
   35.6115  -19.7227   38.8522 C   0  0  0  0  0  0  0  0  0  0  0  0
   36.4067  -20.0409   37.8614 C   0  0  0  0  0  0  0  0  0  0  0  0
   38.1423  -13.2011   37.5873 C   0  0  0  0  0  0  0  0  0  0  0  0
   37.4209  -14.2098   37.3196 O   0  0  0  0  0  0  0  0  0  0  0  0
   34.2851  -18.4577   35.6898 O   0  0  0  0  0  0  0  0  0  0  0  0
   34.5160  -18.5447   34.2802 C   0  0  0  0  0  0  0  0  0  0  0  0
   35.2977  -13.7335   36.0171 C   0  0  0  0  0  0  0  0  0  0  0  0
   34.5126  -12.8709   36.7228 N   0  0  0  0  0  0  0  0  0  0  0  0
   34.9372  -11.5054   36.4982 C   0  0  0  0  0  0  0  0  0  0  0  0
   33.6246  -13.0168   37.7348 C   0  0  0  0  0  0  0  0  0  0  0  0
 19 20  1  0  0  0
 20  1  1  0  0  0
  1  2  2  0  0  0
  2  3  1  0  0  0
  3  7  1  0  0  0
  7  8  2  0  0  0
  8  9  1  0  0  0
  9 10  1  0  0  0
  9 11  1  0  0  0
 11 12  2  0  0  0
 11 13  1  0  0  0
 13 14  2  0  0  0
 14 15  1  0  0  0
 15 16  2  0  0  0
 16 17  1  0  0  0
 17 18  2  0  0  0
  3  4  2  0  0  0
  4 21  1  0  0  0
 21 22  1  0  0  0
  4  5  1  0  0  0
  5  6  2  0  0  0
  6 23  1  0  0  0
 23 24  1  0  0  0
 24 25  1  0  0  0
 24 26  1  0  0  0
  6  1  1  0  0  0
 18  7  1  0  0  0
 18 13  1  0  0  0
M  END
> <minimizedAffinity>
-6.06855

> <CNNscore>
0.3870692849

> <CNNaffinity>
4.9291014671

> <CNN_VS>
1.9079037905

> <CNNaffinity_variance>
0.5301563740

$$$$
[H]c1nc([H])c(N([H])C(=O)c2nn(-c3c([H])c([H])c([H])c([H])c3Cl)c(-c3c([H])c([H])c(Cl)c([H])c3[H])c2C([H])([H])C(=O)N([H])[H])c(C([H])([H])[H])c1[H]


 36 39  0  0  0  0  0  0  0  0999 V2000
   36.9534  -20.2522   36.7500 C   0  0  0  0  0  0  0  0  0  0  0  0
   38.0515  -20.3808   35.9896 N   0  0  0  0  0  0  0  0  0  0  0  0
   39.0612  -20.9210   36.6834 N   0  0  0  0  0  0  0  0  0  0  0  0
   38.6469  -21.1735   37.9642 C   0  0  0  0  0  0  0  0  0  0  0  0
   37.3328  -20.7564   37.9939 C   0  0  0  0  0  0  0  0  0  0  0  0
   40.3214  -21.1115   36.0759 C   0  0  0  0  0  0  0  0  0  0  0  0
   40.6269  -22.3140   35.4823 C   0  0  0  0  0  0  0  0  0  0  0  0
   41.8804  -22.5328   34.8983 C   0  0  0  0  0  0  0  0  0  0  0  0
   42.8425  -21.5373   34.9068 C   0  0  0  0  0  0  0  0  0  0  0  0
   42.5330  -20.3385   35.5005 C   0  0  0  0  0  0  0  0  0  0  0  0
   41.3016  -20.1235   36.0744 C   0  0  0  0  0  0  0  0  0  0  0  0
   40.8935  -18.6016   36.8339 Cl  0  0  0  0  0  0  0  0  0  0  0  0
   39.5087  -21.6208   39.0471 C   0  0  0  0  0  0  0  0  0  0  0  0
   39.7097  -22.9302   39.4035 C   0  0  0  0  0  0  0  0  0  0  0  0
   40.6166  -23.3580   40.3648 C   0  0  0  0  0  0  0  0  0  0  0  0
   41.3788  -22.4275   41.0239 C   0  0  0  0  0  0  0  0  0  0  0  0
   42.5121  -22.9914   42.2287 Cl  0  0  0  0  0  0  0  0  0  0  0  0
   41.2217  -21.1134   40.7134 C   0  0  0  0  0  0  0  0  0  0  0  0
   40.3043  -20.7013   39.7409 C   0  0  0  0  0  0  0  0  0  0  0  0
   34.7019  -20.5805   35.8031 N   0  0  0  0  0  0  0  0  0  0  0  0
   35.6651  -19.6949   36.3294 C   0  0  0  0  0  0  0  0  0  0  0  0
   35.4409  -18.4910   36.4367 O   0  0  0  0  0  0  0  0  0  0  0  0
   35.0219  -21.6081   35.7639 H   0  0  0  0  0  0  0  0  0  0  0  0
   32.5826  -21.3917   37.4052 C   0  0  0  0  0  0  0  0  0  0  0  0
   32.3199  -20.6924   36.1346 C   0  0  0  0  0  0  0  0  0  0  0  0
   31.0182  -20.4422   35.7489 C   0  0  0  0  0  0  0  0  0  0  0  0
   30.7317  -19.7977   34.5714 C   0  0  0  0  0  0  0  0  0  0  0  0
   31.7718  -19.4263   33.8207 N   0  0  0  0  0  0  0  0  0  0  0  0
   33.0756  -19.6595   34.1750 C   0  0  0  0  0  0  0  0  0  0  0  0
   33.4100  -20.2984   35.3392 C   0  0  0  0  0  0  0  0  0  0  0  0
   36.3516  -20.8772   39.1170 C   0  0  0  0  0  0  0  0  0  0  0  0
   35.8717  -22.3134   39.1069 C   0  0  0  0  0  0  0  0  0  0  0  0
   35.8195  -22.9870   40.3392 N   0  0  0  0  0  0  0  0  0  0  0  0
   35.5379  -22.8745   38.0569 O   0  0  0  0  0  0  0  0  0  0  0  0
   36.6487  -23.0763   40.9949 H   0  0  0  0  0  0  0  0  0  0  0  0
   34.9417  -23.4602   40.7091 H   0  0  0  0  0  0  0  0  0  0  0  0
 24 25  1  0  0  0
 25 26  2  0  0  0
 26 27  1  0  0  0
 27 28  2  0  0  0
 28 29  1  0  0  0
 29 30  2  0  0  0
 30 20  1  0  0  0
 20 21  1  0  0  0
 21 22  2  0  0  0
 21  1  1  0  0  0
  1  2  2  0  0  0
  2  3  1  0  0  0
  3  6  1  0  0  0
  6  7  2  0  0  0
  7  8  1  0  0  0
  8  9  2  0  0  0
  9 10  1  0  0  0
 10 11  2  0  0  0
 11 12  1  0  0  0
  3  4  1  0  0  0
  4 13  1  0  0  0
 13 14  2  0  0  0
 14 15  1  0  0  0
 15 16  2  0  0  0
 16 17  1  0  0  0
 16 18  1  0  0  0
 18 19  2  0  0  0
  4  5  2  0  0  0
  5 31  1  0  0  0
 31 32  1  0  0  0
 32 33  1  0  0  0
 32 34  2  0  0  0
 30 25  1  0  0  0
  5  1  1  0  0  0
 11  6  1  0  0  0
 19 13  1  0  0  0
 20 23  1  0  0  0
 33 35  1  0  0  0
 33 36  1  0  0  0
M  END
> <minimizedAffinity>
-4.57507

> <CNNscore>
0.3014263511

> <CNNaffinity>
5.8280620575

> <CNN_VS>
1.7567315102

> <CNNaffinity_variance>
0.2740844190

$$$$
[H]c1nc([H])c(N([H])C(=O)c2nn(-c3c([H])c([H])c([H])c([H])c3Cl)c(-c3c([H])c([H])c(Cl)c([H])c3[H])c2C([H])([H])C(=O)N([H])[H])c(C([H])([H])[H])c1[H]


 36 39  0  0  0  0  0  0  0  0999 V2000
   34.5735  -20.1147   36.4671 C   0  0  0  0  0  0  0  0  0  0  0  0
   34.7711  -20.9214   37.5211 N   0  0  0  0  0  0  0  0  0  0  0  0
   33.9014  -21.9393   37.5223 N   0  0  0  0  0  0  0  0  0  0  0  0
   33.0767  -21.8321   36.4341 C   0  0  0  0  0  0  0  0  0  0  0  0
   33.5057  -20.6948   35.7826 C   0  0  0  0  0  0  0  0  0  0  0  0
   33.9168  -22.8882   38.5678 C   0  0  0  0  0  0  0  0  0  0  0  0
   33.2443  -22.6345   39.7403 C   0  0  0  0  0  0  0  0  0  0  0  0
   33.2693  -23.5500   40.7993 C   0  0  0  0  0  0  0  0  0  0  0  0
   33.9755  -24.7353   40.6864 C   0  0  0  0  0  0  0  0  0  0  0  0
   34.6454  -24.9843   39.5139 C   0  0  0  0  0  0  0  0  0  0  0  0
   34.6210  -24.0850   38.4735 C   0  0  0  0  0  0  0  0  0  0  0  0
   35.4694  -24.3889   36.9744 Cl  0  0  0  0  0  0  0  0  0  0  0  0
   31.9153  -22.6703   36.1814 C   0  0  0  0  0  0  0  0  0  0  0  0
   30.6253  -22.3513   36.5220 C   0  0  0  0  0  0  0  0  0  0  0  0
   29.5081  -23.1032   36.1810 C   0  0  0  0  0  0  0  0  0  0  0  0
   29.6752  -24.2540   35.4536 C   0  0  0  0  0  0  0  0  0  0  0  0
   28.2540  -25.1820   35.0375 Cl  0  0  0  0  0  0  0  0  0  0  0  0
   30.9320  -24.6216   35.0886 C   0  0  0  0  0  0  0  0  0  0  0  0
   32.0453  -23.8505   35.4399 C   0  0  0  0  0  0  0  0  0  0  0  0
   35.2072  -17.7974   37.0170 N   0  0  0  0  0  0  0  0  0  0  0  0
   35.3298  -18.9010   36.1474 C   0  0  0  0  0  0  0  0  0  0  0  0
   36.0465  -18.8568   35.1497 O   0  0  0  0  0  0  0  0  0  0  0  0
   34.5502  -17.9656   37.8536 H   0  0  0  0  0  0  0  0  0  0  0  0
   33.7484  -15.7601   35.8181 C   0  0  0  0  0  0  0  0  0  0  0  0
   35.1016  -15.4904   36.3365 C   0  0  0  0  0  0  0  0  0  0  0  0
   35.6359  -14.2225   36.2246 C   0  0  0  0  0  0  0  0  0  0  0  0
   36.8938  -13.9320   36.6908 C   0  0  0  0  0  0  0  0  0  0  0  0
   37.5718  -14.9340   37.2560 N   0  0  0  0  0  0  0  0  0  0  0  0
   37.0701  -16.2036   37.3826 C   0  0  0  0  0  0  0  0  0  0  0  0
   35.8212  -16.5405   36.9328 C   0  0  0  0  0  0  0  0  0  0  0  0
   33.0248  -20.1418   34.4781 C   0  0  0  0  0  0  0  0  0  0  0  0
   32.1527  -18.9516   34.8190 C   0  0  0  0  0  0  0  0  0  0  0  0
   32.2845  -17.8029   34.0202 N   0  0  0  0  0  0  0  0  0  0  0  0
   31.3546  -18.9860   35.7627 O   0  0  0  0  0  0  0  0  0  0  0  0
   33.2080  -17.3095   33.8493 H   0  0  0  0  0  0  0  0  0  0  0  0
   31.4654  -17.3394   33.5246 H   0  0  0  0  0  0  0  0  0  0  0  0
 24 25  1  0  0  0
 25 26  2  0  0  0
 26 27  1  0  0  0
 27 28  2  0  0  0
 28 29  1  0  0  0
 29 30  2  0  0  0
 30 20  1  0  0  0
 20 21  1  0  0  0
 21 22  2  0  0  0
 21  1  1  0  0  0
  1  2  2  0  0  0
  2  3  1  0  0  0
  3  6  1  0  0  0
  6  7  2  0  0  0
  7  8  1  0  0  0
  8  9  2  0  0  0
  9 10  1  0  0  0
 10 11  2  0  0  0
 11 12  1  0  0  0
  3  4  1  0  0  0
  4 13  1  0  0  0
 13 14  2  0  0  0
 14 15  1  0  0  0
 15 16  2  0  0  0
 16 17  1  0  0  0
 16 18  1  0  0  0
 18 19  2  0  0  0
  4  5  2  0  0  0
  5 31  1  0  0  0
 31 32  1  0  0  0
 32 33  1  0  0  0
 32 34  2  0  0  0
 30 25  1  0  0  0
  5  1  1  0  0  0
 11  6  1  0  0  0
 19 13  1  0  0  0
 20 23  1  0  0  0
 33 35  1  0  0  0
 33 36  1  0  0  0
M  END
> <minimizedAffinity>
-5.38807

> <CNNscore>
0.2759537995

> <CNNaffinity>
5.8272190094

> <CNN_VS>
1.6080431938

> <CNNaffinity_variance>
0.0596796460

$$$$
[H]c1nc([H])c(N([H])C(=O)c2nn(-c3c([H])c([H])c([H])c([H])c3Cl)c(-c3c([H])c([H])c(Cl)c([H])c3[H])c2C([H])([H])C(=O)N([H])[H])c(C([H])([H])[H])c1[H]


 36 39  0  0  0  0  0  0  0  0999 V2000
   34.5081  -14.6066   36.4337 C   0  0  0  0  0  0  0  0  0  0  0  0
   33.8137  -15.5004   35.7131 N   0  0  0  0  0  0  0  0  0  0  0  0
   34.2522  -16.7462   35.9327 N   0  0  0  0  0  0  0  0  0  0  0  0
   35.2827  -16.7116   36.8342 C   0  0  0  0  0  0  0  0  0  0  0  0
   35.4317  -15.3754   37.1417 C   0  0  0  0  0  0  0  0  0  0  0  0
   33.6761  -17.8360   35.2442 C   0  0  0  0  0  0  0  0  0  0  0  0
   32.4453  -18.3189   35.6227 C   0  0  0  0  0  0  0  0  0  0  0  0
   31.8686  -19.4157   34.9709 C   0  0  0  0  0  0  0  0  0  0  0  0
   32.5298  -20.0392   33.9266 C   0  0  0  0  0  0  0  0  0  0  0  0
   33.7584  -19.5535   33.5521 C   0  0  0  0  0  0  0  0  0  0  0  0
   34.3250  -18.4761   34.1925 C   0  0  0  0  0  0  0  0  0  0  0  0
   35.8890  -17.8468   33.7261 Cl  0  0  0  0  0  0  0  0  0  0  0  0
   36.1059  -17.8519   37.2048 C   0  0  0  0  0  0  0  0  0  0  0  0
   35.6834  -18.9145   37.9626 C   0  0  0  0  0  0  0  0  0  0  0  0
   36.4385  -20.0514   38.2212 C   0  0  0  0  0  0  0  0  0  0  0  0
   37.7022  -20.1465   37.6966 C   0  0  0  0  0  0  0  0  0  0  0  0
   38.6317  -21.5868   38.0367 Cl  0  0  0  0  0  0  0  0  0  0  0  0
   38.1754  -19.1225   36.9381 C   0  0  0  0  0  0  0  0  0  0  0  0
   37.3996  -17.9857   36.6870 C   0  0  0  0  0  0  0  0  0  0  0  0
   33.1755  -12.6444   37.1025 N   0  0  0  0  0  0  0  0  0  0  0  0
   34.3117  -13.1545   36.4409 C   0  0  0  0  0  0  0  0  0  0  0  0
   35.1188  -12.4127   35.8845 O   0  0  0  0  0  0  0  0  0  0  0  0
   32.5496  -13.3982   37.5495 H   0  0  0  0  0  0  0  0  0  0  0  0
   30.4752  -12.1925   37.5717 C   0  0  0  0  0  0  0  0  0  0  0  0
   31.4099  -11.0554   37.4959 C   0  0  0  0  0  0  0  0  0  0  0  0
   30.9363   -9.7695   37.6614 C   0  0  0  0  0  0  0  0  0  0  0  0
   31.7735   -8.6838   37.5938 C   0  0  0  0  0  0  0  0  0  0  0  0
   33.0644   -8.9337   37.3607 N   0  0  0  0  0  0  0  0  0  0  0  0
   33.5665  -10.1983   37.1919 C   0  0  0  0  0  0  0  0  0  0  0  0
   32.7705  -11.3110   37.2509 C   0  0  0  0  0  0  0  0  0  0  0  0
   36.3520  -14.7570   38.1464 C   0  0  0  0  0  0  0  0  0  0  0  0
   37.4506  -14.0805   37.3536 C   0  0  0  0  0  0  0  0  0  0  0  0
   37.4159  -14.2144   35.9550 N   0  0  0  0  0  0  0  0  0  0  0  0
   38.3449  -13.4346   37.9120 O   0  0  0  0  0  0  0  0  0  0  0  0
   37.3799  -15.1497   35.4556 H   0  0  0  0  0  0  0  0  0  0  0  0
   37.4231  -13.3853   35.2888 H   0  0  0  0  0  0  0  0  0  0  0  0
 24 25  1  0  0  0
 25 26  2  0  0  0
 26 27  1  0  0  0
 27 28  2  0  0  0
 28 29  1  0  0  0
 29 30  2  0  0  0
 30 20  1  0  0  0
 20 21  1  0  0  0
 21 22  2  0  0  0
 21  1  1  0  0  0
  1  2  2  0  0  0
  2  3  1  0  0  0
  3  6  1  0  0  0
  6  7  2  0  0  0
  7  8  1  0  0  0
  8  9  2  0  0  0
  9 10  1  0  0  0
 10 11  2  0  0  0
 11 12  1  0  0  0
  3  4  1  0  0  0
  4 13  1  0  0  0
 13 14  2  0  0  0
 14 15  1  0  0  0
 15 16  2  0  0  0
 16 17  1  0  0  0
 16 18  1  0  0  0
 18 19  2  0  0  0
  4  5  2  0  0  0
  5 31  1  0  0  0
 31 32  1  0  0  0
 32 33  1  0  0  0
 32 34  2  0  0  0
 30 25  1  0  0  0
  5  1  1  0  0  0
 11  6  1  0  0  0
 19 13  1  0  0  0
 20 23  1  0  0  0
 33 35  1  0  0  0
 33 36  1  0  0  0
M  END
> <minimizedAffinity>
-8.15098

> <CNNscore>
0.2616204023

> <CNNaffinity>
6.6519880295

> <CNN_VS>
1.7402957678

> <CNNaffinity_variance>
0.2603527904

$$$$
[H]c1nc([H])c(N([H])C(=O)c2nn(-c3c([H])c([H])c([H])c([H])c3Cl)c(-c3c([H])c([H])c(Cl)c([H])c3[H])c2C([H])([H])C(=O)N([H])[H])c(C([H])([H])[H])c1[H]


 36 39  0  0  0  0  0  0  0  0999 V2000
   37.3131  -21.3922   37.1234 C   0  0  0  0  0  0  0  0  0  0  0  0
   38.2682  -21.6339   36.2124 N   0  0  0  0  0  0  0  0  0  0  0  0
   39.4794  -21.6826   36.7808 N   0  0  0  0  0  0  0  0  0  0  0  0
   39.3568  -21.4676   38.1279 C   0  0  0  0  0  0  0  0  0  0  0  0
   38.0041  -21.2911   38.3307 C   0  0  0  0  0  0  0  0  0  0  0  0
   40.6298  -21.8932   35.9897 C   0  0  0  0  0  0  0  0  0  0  0  0
   41.0585  -23.1722   35.7215 C   0  0  0  0  0  0  0  0  0  0  0  0
   42.2119  -23.4025   34.9619 C   0  0  0  0  0  0  0  0  0  0  0  0
   42.9477  -22.3412   34.4631 C   0  0  0  0  0  0  0  0  0  0  0  0
   42.5159  -21.0661   34.7334 C   0  0  0  0  0  0  0  0  0  0  0  0
   41.3829  -20.8398   35.4797 C   0  0  0  0  0  0  0  0  0  0  0  0
   40.8210  -19.2211   35.8317 Cl  0  0  0  0  0  0  0  0  0  0  0  0
   40.4684  -21.3014   39.0510 C   0  0  0  0  0  0  0  0  0  0  0  0
   41.0191  -20.0978   39.4113 C   0  0  0  0  0  0  0  0  0  0  0  0
   42.0061  -19.9364   40.3754 C   0  0  0  0  0  0  0  0  0  0  0  0
   42.4864  -21.0420   41.0299 C   0  0  0  0  0  0  0  0  0  0  0  0
   43.7279  -20.8122   42.2381 Cl  0  0  0  0  0  0  0  0  0  0  0  0
   41.9789  -22.2626   40.7132 C   0  0  0  0  0  0  0  0  0  0  0  0
   40.9837  -22.4055   39.7404 C   0  0  0  0  0  0  0  0  0  0  0  0
   35.4282  -20.1151   36.1804 N   0  0  0  0  0  0  0  0  0  0  0  0
   35.8767  -21.2642   36.8641 C   0  0  0  0  0  0  0  0  0  0  0  0
   35.0951  -22.1376   37.2350 O   0  0  0  0  0  0  0  0  0  0  0  0
   36.2124  -19.4284   35.9098 H   0  0  0  0  0  0  0  0  0  0  0  0
   35.1266  -18.6302   33.8523 C   0  0  0  0  0  0  0  0  0  0  0  0
   33.9409  -19.0191   34.6366 C   0  0  0  0  0  0  0  0  0  0  0  0
   32.6840  -18.6437   34.2065 C   0  0  0  0  0  0  0  0  0  0  0  0
   31.5555  -18.9822   34.9107 C   0  0  0  0  0  0  0  0  0  0  0  0
   31.7343  -19.6905   36.0286 N   0  0  0  0  0  0  0  0  0  0  0  0
   32.9682  -20.0791   36.4828 C   0  0  0  0  0  0  0  0  0  0  0  0
   34.1215  -19.7649   35.8146 C   0  0  0  0  0  0  0  0  0  0  0  0
   37.2815  -21.1113   39.6286 C   0  0  0  0  0  0  0  0  0  0  0  0
   37.3033  -22.4608   40.3153 C   0  0  0  0  0  0  0  0  0  0  0  0
   37.8595  -22.5221   41.6044 N   0  0  0  0  0  0  0  0  0  0  0  0
   36.8500  -23.4715   39.7658 O   0  0  0  0  0  0  0  0  0  0  0  0
   38.8368  -22.1823   41.8389 H   0  0  0  0  0  0  0  0  0  0  0  0
   37.3410  -22.9152   42.4458 H   0  0  0  0  0  0  0  0  0  0  0  0
 24 25  1  0  0  0
 25 26  2  0  0  0
 26 27  1  0  0  0
 27 28  2  0  0  0
 28 29  1  0  0  0
 29 30  2  0  0  0
 30 20  1  0  0  0
 20 21  1  0  0  0
 21 22  2  0  0  0
 21  1  1  0  0  0
  1  2  2  0  0  0
  2  3  1  0  0  0
  3  6  1  0  0  0
  6  7  2  0  0  0
  7  8  1  0  0  0
  8  9  2  0  0  0
  9 10  1  0  0  0
 10 11  2  0  0  0
 11 12  1  0  0  0
  3  4  1  0  0  0
  4 13  1  0  0  0
 13 14  2  0  0  0
 14 15  1  0  0  0
 15 16  2  0  0  0
 16 17  1  0  0  0
 16 18  1  0  0  0
 18 19  2  0  0  0
  4  5  2  0  0  0
  5 31  1  0  0  0
 31 32  1  0  0  0
 32 33  1  0  0  0
 32 34  2  0  0  0
 30 25  1  0  0  0
  5  1  1  0  0  0
 11  6  1  0  0  0
 19 13  1  0  0  0
 20 23  1  0  0  0
 33 35  1  0  0  0
 33 36  1  0  0  0
M  END
> <minimizedAffinity>
-4.69222

> <CNNscore>
0.2584342957

> <CNNaffinity>
5.7677345276

> <CNN_VS>
1.4905804396

> <CNNaffinity_variance>
0.1027074903

$$$$
[H]c1nc([H])c(N([H])C(=O)c2nn(-c3c([H])c([H])c([H])c([H])c3Cl)c(-c3c([H])c([H])c(Cl)c([H])c3[H])c2C([H])([H])C(=O)N([H])[H])c(C([H])([H])[H])c1[H]


 36 39  0  0  0  0  0  0  0  0999 V2000
   38.6092  -18.8288   36.1718 C   0  0  0  0  0  0  0  0  0  0  0  0
   39.4334  -18.6213   37.2102 N   0  0  0  0  0  0  0  0  0  0  0  0
   40.4689  -19.4697   37.1843 N   0  0  0  0  0  0  0  0  0  0  0  0
   40.3560  -20.2894   36.0929 C   0  0  0  0  0  0  0  0  0  0  0  0
   39.1967  -19.8799   35.4681 C   0  0  0  0  0  0  0  0  0  0  0  0
   41.4389  -19.4413   38.2099 C   0  0  0  0  0  0  0  0  0  0  0  0
   41.2406  -20.1568   39.3676 C   0  0  0  0  0  0  0  0  0  0  0  0
   42.1771  -20.1207   40.4078 C   0  0  0  0  0  0  0  0  0  0  0  0
   43.3276  -19.3598   40.2908 C   0  0  0  0  0  0  0  0  0  0  0  0
   43.5214  -18.6471   39.1332 C   0  0  0  0  0  0  0  0  0  0  0  0
   42.6014  -18.6824   38.1113 C   0  0  0  0  0  0  0  0  0  0  0  0
   42.8350  -17.7800   36.6312 Cl  0  0  0  0  0  0  0  0  0  0  0  0
   41.2125  -21.4315   35.8150 C   0  0  0  0  0  0  0  0  0  0  0  0
   42.4060  -21.3749   35.1410 C   0  0  0  0  0  0  0  0  0  0  0  0
   43.2720  -22.4481   34.9742 C   0  0  0  0  0  0  0  0  0  0  0  0
   42.9359  -23.6658   35.5087 C   0  0  0  0  0  0  0  0  0  0  0  0
   44.0422  -25.0000   35.2849 Cl  0  0  0  0  0  0  0  0  0  0  0  0
   41.7634  -23.7825   36.1865 C   0  0  0  0  0  0  0  0  0  0  0  0
   40.9044  -22.6898   36.3457 C   0  0  0  0  0  0  0  0  0  0  0  0
   37.1047  -16.9319   36.6322 N   0  0  0  0  0  0  0  0  0  0  0  0
   37.3738  -18.0958   35.8826 C   0  0  0  0  0  0  0  0  0  0  0  0
   36.6026  -18.4916   35.0109 O   0  0  0  0  0  0  0  0  0  0  0  0
   37.8591  -16.6933   37.3628 H   0  0  0  0  0  0  0  0  0  0  0  0
   37.4038  -14.4032   37.7423 C   0  0  0  0  0  0  0  0  0  0  0  0
   36.1344  -14.7773   37.0934 C   0  0  0  0  0  0  0  0  0  0  0  0
   35.0999  -13.8649   37.0392 C   0  0  0  0  0  0  0  0  0  0  0  0
   33.9010  -14.1760   36.4477 C   0  0  0  0  0  0  0  0  0  0  0  0
   33.7864  -15.4012   35.9292 N   0  0  0  0  0  0  0  0  0  0  0  0
   34.7941  -16.3302   35.9663 C   0  0  0  0  0  0  0  0  0  0  0  0
   36.0066  -16.0655   36.5452 C   0  0  0  0  0  0  0  0  0  0  0  0
   38.6267  -20.3638   34.1721 C   0  0  0  0  0  0  0  0  0  0  0  0
   39.3254  -19.5774   33.0828 C   0  0  0  0  0  0  0  0  0  0  0  0
   38.6891  -18.4153   32.6141 N   0  0  0  0  0  0  0  0  0  0  0  0
   40.4134  -19.9409   32.6215 O   0  0  0  0  0  0  0  0  0  0  0  0
   37.6957  -18.3992   32.2421 H   0  0  0  0  0  0  0  0  0  0  0  0
   39.1570  -17.4603   32.5965 H   0  0  0  0  0  0  0  0  0  0  0  0
 24 25  1  0  0  0
 25 26  2  0  0  0
 26 27  1  0  0  0
 27 28  2  0  0  0
 28 29  1  0  0  0
 29 30  2  0  0  0
 30 20  1  0  0  0
 20 21  1  0  0  0
 21 22  2  0  0  0
 21  1  1  0  0  0
  1  2  2  0  0  0
  2  3  1  0  0  0
  3  6  1  0  0  0
  6  7  2  0  0  0
  7  8  1  0  0  0
  8  9  2  0  0  0
  9 10  1  0  0  0
 10 11  2  0  0  0
 11 12  1  0  0  0
  3  4  1  0  0  0
  4 13  1  0  0  0
 13 14  2  0  0  0
 14 15  1  0  0  0
 15 16  2  0  0  0
 16 17  1  0  0  0
 16 18  1  0  0  0
 18 19  2  0  0  0
  4  5  2  0  0  0
  5 31  1  0  0  0
 31 32  1  0  0  0
 32 33  1  0  0  0
 32 34  2  0  0  0
 30 25  1  0  0  0
  5  1  1  0  0  0
 11  6  1  0  0  0
 19 13  1  0  0  0
 20 23  1  0  0  0
 33 35  1  0  0  0
 33 36  1  0  0  0
M  END
> <minimizedAffinity>
-7.00857

> <CNNscore>
0.2212083787

> <CNNaffinity>
5.9253349304

> <CNN_VS>
1.3107336760

> <CNNaffinity_variance>
0.3385593891

$$$$
[H]c1nc([H])c(N([H])C(=O)c2nn(-c3c([H])c([H])c([H])c([H])c3Cl)c(-c3c([H])c([H])c(Cl)c([H])c3[H])c2C([H])([H])C(=O)N([H])[H])c(C([H])([H])[H])c1[H]


 36 39  0  0  0  0  0  0  0  0999 V2000
   36.4288  -21.1665   37.3276 C   0  0  0  0  0  0  0  0  0  0  0  0
   35.9950  -19.8993   37.2450 N   0  0  0  0  0  0  0  0  0  0  0  0
   36.9376  -19.0962   36.7361 N   0  0  0  0  0  0  0  0  0  0  0  0
   38.0586  -19.8324   36.4583 C   0  0  0  0  0  0  0  0  0  0  0  0
   37.7300  -21.1200   36.8274 C   0  0  0  0  0  0  0  0  0  0  0  0
   36.6949  -17.7123   36.5963 C   0  0  0  0  0  0  0  0  0  0  0  0
   36.8453  -16.8726   37.6751 C   0  0  0  0  0  0  0  0  0  0  0  0
   36.5836  -15.5017   37.5647 C   0  0  0  0  0  0  0  0  0  0  0  0
   36.1657  -14.9613   36.3606 C   0  0  0  0  0  0  0  0  0  0  0  0
   36.0170  -15.8034   35.2863 C   0  0  0  0  0  0  0  0  0  0  0  0
   36.2740  -17.1503   35.3947 C   0  0  0  0  0  0  0  0  0  0  0  0
   36.0890  -18.2347   34.0348 Cl  0  0  0  0  0  0  0  0  0  0  0  0
   39.3355  -19.2805   36.0337 C   0  0  0  0  0  0  0  0  0  0  0  0
   40.3596  -18.9279   36.8756 C   0  0  0  0  0  0  0  0  0  0  0  0
   41.6157  -18.5052   36.4595 C   0  0  0  0  0  0  0  0  0  0  0  0
   41.8804  -18.4220   35.1163 C   0  0  0  0  0  0  0  0  0  0  0  0
   43.4681  -17.8874   34.6187 Cl  0  0  0  0  0  0  0  0  0  0  0  0
   40.9023  -18.7575   34.2338 C   0  0  0  0  0  0  0  0  0  0  0  0
   39.6435  -19.1827   34.6716 C   0  0  0  0  0  0  0  0  0  0  0  0
   35.6365  -22.5072   39.2375 N   0  0  0  0  0  0  0  0  0  0  0  0
   35.6736  -22.3123   37.8412 C   0  0  0  0  0  0  0  0  0  0  0  0
   35.0935  -23.0739   37.0701 O   0  0  0  0  0  0  0  0  0  0  0  0
   36.1836  -21.7701   39.8008 H   0  0  0  0  0  0  0  0  0  0  0  0
   37.1653  -24.7026   39.9853 C   0  0  0  0  0  0  0  0  0  0  0  0
   35.7424  -24.6327   40.3635 C   0  0  0  0  0  0  0  0  0  0  0  0
   35.1776  -25.6608   41.0911 C   0  0  0  0  0  0  0  0  0  0  0  0
   33.8555  -25.6354   41.4590 C   0  0  0  0  0  0  0  0  0  0  0  0
   33.1460  -24.5699   41.0790 N   0  0  0  0  0  0  0  0  0  0  0  0
   33.6766  -23.5326   40.3563 C   0  0  0  0  0  0  0  0  0  0  0  0
   34.9894  -23.5138   39.9668 C   0  0  0  0  0  0  0  0  0  0  0  0
   38.5452  -22.3637   36.6620 C   0  0  0  0  0  0  0  0  0  0  0  0
   39.6365  -22.2966   37.7097 C   0  0  0  0  0  0  0  0  0  0  0  0
   39.2578  -21.9471   39.0171 N   0  0  0  0  0  0  0  0  0  0  0  0
   40.8159  -22.5394   37.4290 O   0  0  0  0  0  0  0  0  0  0  0  0
   38.7205  -21.0641   39.2565 H   0  0  0  0  0  0  0  0  0  0  0  0
   39.4819  -22.5433   39.8689 H   0  0  0  0  0  0  0  0  0  0  0  0
 24 25  1  0  0  0
 25 26  2  0  0  0
 26 27  1  0  0  0
 27 28  2  0  0  0
 28 29  1  0  0  0
 29 30  2  0  0  0
 30 20  1  0  0  0
 20 21  1  0  0  0
 21 22  2  0  0  0
 21  1  1  0  0  0
  1  2  2  0  0  0
  2  3  1  0  0  0
  3  6  1  0  0  0
  6  7  2  0  0  0
  7  8  1  0  0  0
  8  9  2  0  0  0
  9 10  1  0  0  0
 10 11  2  0  0  0
 11 12  1  0  0  0
  3  4  1  0  0  0
  4 13  1  0  0  0
 13 14  2  0  0  0
 14 15  1  0  0  0
 15 16  2  0  0  0
 16 17  1  0  0  0
 16 18  1  0  0  0
 18 19  2  0  0  0
  4  5  2  0  0  0
  5 31  1  0  0  0
 31 32  1  0  0  0
 32 33  1  0  0  0
 32 34  2  0  0  0
 30 25  1  0  0  0
  5  1  1  0  0  0
 11  6  1  0  0  0
 19 13  1  0  0  0
 20 23  1  0  0  0
 33 35  1  0  0  0
 33 36  1  0  0  0
M  END
> <minimizedAffinity>
-4.72526

> <CNNscore>
0.2068292350

> <CNNaffinity>
5.3243827820

> <CNN_VS>
1.1012380123

> <CNNaffinity_variance>
0.3440112174

$$$$
[H]c1nc([H])c(N([H])C(=O)c2nn(-c3c([H])c([H])c([H])c([H])c3Cl)c(-c3c([H])c([H])c(Cl)c([H])c3[H])c2C([H])([H])C(=O)N([H])[H])c(C([H])([H])[H])c1[H]


 36 39  0  0  0  0  0  0  0  0999 V2000
   38.5190  -19.1414   37.0693 C   0  0  0  0  0  0  0  0  0  0  0  0
   39.6741  -18.6458   36.5994 N   0  0  0  0  0  0  0  0  0  0  0  0
   40.7093  -19.4242   36.9385 N   0  0  0  0  0  0  0  0  0  0  0  0
   40.2544  -20.4917   37.6660 C   0  0  0  0  0  0  0  0  0  0  0  0
   38.8895  -20.3074   37.7388 C   0  0  0  0  0  0  0  0  0  0  0  0
   42.0234  -19.0624   36.5701 C   0  0  0  0  0  0  0  0  0  0  0  0
   42.7596  -18.2237   37.3739 C   0  0  0  0  0  0  0  0  0  0  0  0
   44.0542  -17.8310   37.0134 C   0  0  0  0  0  0  0  0  0  0  0  0
   44.6221  -18.2818   35.8340 C   0  0  0  0  0  0  0  0  0  0  0  0
   43.8833  -19.1190   35.0347 C   0  0  0  0  0  0  0  0  0  0  0  0
   42.6114  -19.5047   35.3887 C   0  0  0  0  0  0  0  0  0  0  0  0
   41.6590  -20.5706   34.3805 Cl  0  0  0  0  0  0  0  0  0  0  0  0
   41.1008  -21.4695   38.3315 C   0  0  0  0  0  0  0  0  0  0  0  0
   41.7160  -22.5284   37.7134 C   0  0  0  0  0  0  0  0  0  0  0  0
   42.6101  -23.3940   38.3306 C   0  0  0  0  0  0  0  0  0  0  0  0
   42.9182  -23.2030   39.6535 C   0  0  0  0  0  0  0  0  0  0  0  0
   44.0456  -24.3056   40.4067 Cl  0  0  0  0  0  0  0  0  0  0  0  0
   42.3373  -22.1697   40.3188 C   0  0  0  0  0  0  0  0  0  0  0  0
   41.4401  -21.3070   39.6799 C   0  0  0  0  0  0  0  0  0  0  0  0
   37.1023  -17.1628   36.6796 N   0  0  0  0  0  0  0  0  0  0  0  0
   37.1876  -18.5533   36.8995 C   0  0  0  0  0  0  0  0  0  0  0  0
   36.1824  -19.2593   36.9487 O   0  0  0  0  0  0  0  0  0  0  0  0
   38.0545  -16.6603   36.6573 H   0  0  0  0  0  0  0  0  0  0  0  0
   37.0808  -14.6642   37.8930 C   0  0  0  0  0  0  0  0  0  0  0  0
   35.9278  -15.1006   37.0851 C   0  0  0  0  0  0  0  0  0  0  0  0
   34.8423  -14.2612   36.9344 C   0  0  0  0  0  0  0  0  0  0  0  0
   33.7478  -14.6322   36.1939 C   0  0  0  0  0  0  0  0  0  0  0  0
   33.7859  -15.8415   35.6289 N   0  0  0  0  0  0  0  0  0  0  0  0
   34.8481  -16.6986   35.7590 C   0  0  0  0  0  0  0  0  0  0  0  0
   35.9611  -16.3725   36.4872 C   0  0  0  0  0  0  0  0  0  0  0  0
   37.8662  -21.2190   38.3392 C   0  0  0  0  0  0  0  0  0  0  0  0
   37.5645  -22.2668   37.2883 C   0  0  0  0  0  0  0  0  0  0  0  0
   36.3520  -22.1499   36.5873 N   0  0  0  0  0  0  0  0  0  0  0  0
   38.3522  -23.1905   37.0537 O   0  0  0  0  0  0  0  0  0  0  0  0
   35.4043  -22.0874   37.0600 H   0  0  0  0  0  0  0  0  0  0  0  0
   36.2924  -22.1152   35.5260 H   0  0  0  0  0  0  0  0  0  0  0  0
 24 25  1  0  0  0
 25 26  2  0  0  0
 26 27  1  0  0  0
 27 28  2  0  0  0
 28 29  1  0  0  0
 29 30  2  0  0  0
 30 20  1  0  0  0
 20 21  1  0  0  0
 21 22  2  0  0  0
 21  1  1  0  0  0
  1  2  2  0  0  0
  2  3  1  0  0  0
  3  6  1  0  0  0
  6  7  2  0  0  0
  7  8  1  0  0  0
  8  9  2  0  0  0
  9 10  1  0  0  0
 10 11  2  0  0  0
 11 12  1  0  0  0
  3  4  1  0  0  0
  4 13  1  0  0  0
 13 14  2  0  0  0
 14 15  1  0  0  0
 15 16  2  0  0  0
 16 17  1  0  0  0
 16 18  1  0  0  0
 18 19  2  0  0  0
  4  5  2  0  0  0
  5 31  1  0  0  0
 31 32  1  0  0  0
 32 33  1  0  0  0
 32 34  2  0  0  0
 30 25  1  0  0  0
  5  1  1  0  0  0
 11  6  1  0  0  0
 19 13  1  0  0  0
 20 23  1  0  0  0
 33 35  1  0  0  0
 33 36  1  0  0  0
M  END
> <minimizedAffinity>
-5.86448

> <CNNscore>
0.1856316924

> <CNNaffinity>
5.8197126389

> <CNN_VS>
1.0803231001

> <CNNaffinity_variance>
0.1189147010

$$$$
[H]c1nc([H])c(N([H])C(=O)c2nn(-c3c([H])c([H])c([H])c([H])c3Cl)c(-c3c([H])c([H])c(Cl)c([H])c3[H])c2C([H])([H])C(=O)N([H])[H])c(C([H])([H])[H])c1[H]


 36 39  0  0  0  0  0  0  0  0999 V2000
   38.1036  -20.1812   37.2582 C   0  0  0  0  0  0  0  0  0  0  0  0
   37.5571  -20.5507   38.4267 N   0  0  0  0  0  0  0  0  0  0  0  0
   36.2431  -20.7734   38.2985 N   0  0  0  0  0  0  0  0  0  0  0  0
   35.8703  -20.5507   36.9996 C   0  0  0  0  0  0  0  0  0  0  0  0
   37.0365  -20.1856   36.3602 C   0  0  0  0  0  0  0  0  0  0  0  0
   35.4698  -21.1404   39.4214 C   0  0  0  0  0  0  0  0  0  0  0  0
   34.9940  -20.1747   40.2773 C   0  0  0  0  0  0  0  0  0  0  0  0
   34.2484  -20.5191   41.4112 C   0  0  0  0  0  0  0  0  0  0  0  0
   33.9740  -21.8461   41.6948 C   0  0  0  0  0  0  0  0  0  0  0  0
   34.4512  -22.8067   40.8376 C   0  0  0  0  0  0  0  0  0  0  0  0
   35.1837  -22.4685   39.7236 C   0  0  0  0  0  0  0  0  0  0  0  0
   35.7976  -23.6813   38.6229 Cl  0  0  0  0  0  0  0  0  0  0  0  0
   34.4995  -20.5486   36.5134 C   0  0  0  0  0  0  0  0  0  0  0  0
   33.7321  -21.6686   36.3175 C   0  0  0  0  0  0  0  0  0  0  0  0
   32.3902  -21.6553   35.9588 C   0  0  0  0  0  0  0  0  0  0  0  0
   31.7599  -20.4505   35.7782 C   0  0  0  0  0  0  0  0  0  0  0  0
   30.0716  -20.4608   35.3271 Cl  0  0  0  0  0  0  0  0  0  0  0  0
   32.4710  -19.3059   35.9572 C   0  0  0  0  0  0  0  0  0  0  0  0
   33.8217  -19.3390   36.3201 C   0  0  0  0  0  0  0  0  0  0  0  0
   40.4588  -20.8912   37.1072 N   0  0  0  0  0  0  0  0  0  0  0  0
   39.5115  -19.8498   37.0231 C   0  0  0  0  0  0  0  0  0  0  0  0
   39.8458  -18.6962   36.7609 O   0  0  0  0  0  0  0  0  0  0  0  0
   40.0367  -21.8538   37.3421 H   0  0  0  0  0  0  0  0  0  0  0  0
   41.4171  -21.4281   34.5558 C   0  0  0  0  0  0  0  0  0  0  0  0
   42.3573  -21.0937   35.6405 C   0  0  0  0  0  0  0  0  0  0  0  0
   43.7122  -21.0470   35.3801 C   0  0  0  0  0  0  0  0  0  0  0  0
   44.6203  -20.7437   36.3637 C   0  0  0  0  0  0  0  0  0  0  0  0
   44.1287  -20.4970   37.5805 N   0  0  0  0  0  0  0  0  0  0  0  0
   42.7895  -20.5351   37.8720 C   0  0  0  0  0  0  0  0  0  0  0  0
   41.8469  -20.8327   36.9242 C   0  0  0  0  0  0  0  0  0  0  0  0
   37.2435  -19.9125   34.9037 C   0  0  0  0  0  0  0  0  0  0  0  0
   36.7347  -18.5072   34.6603 C   0  0  0  0  0  0  0  0  0  0  0  0
   35.9472  -18.2932   33.5161 N   0  0  0  0  0  0  0  0  0  0  0  0
   37.0000  -17.5817   35.4361 O   0  0  0  0  0  0  0  0  0  0  0  0
   36.2573  -18.5476   32.5340 H   0  0  0  0  0  0  0  0  0  0  0  0
   34.9770  -17.8582   33.5482 H   0  0  0  0  0  0  0  0  0  0  0  0
 24 25  1  0  0  0
 25 26  2  0  0  0
 26 27  1  0  0  0
 27 28  2  0  0  0
 28 29  1  0  0  0
 29 30  2  0  0  0
 30 20  1  0  0  0
 20 21  1  0  0  0
 21 22  2  0  0  0
 21  1  1  0  0  0
  1  2  2  0  0  0
  2  3  1  0  0  0
  3  6  1  0  0  0
  6  7  2  0  0  0
  7  8  1  0  0  0
  8  9  2  0  0  0
  9 10  1  0  0  0
 10 11  2  0  0  0
 11 12  1  0  0  0
  3  4  1  0  0  0
  4 13  1  0  0  0
 13 14  2  0  0  0
 14 15  1  0  0  0
 15 16  2  0  0  0
 16 17  1  0  0  0
 16 18  1  0  0  0
 18 19  2  0  0  0
  4  5  2  0  0  0
  5 31  1  0  0  0
 31 32  1  0  0  0
 32 33  1  0  0  0
 32 34  2  0  0  0
 30 25  1  0  0  0
  5  1  1  0  0  0
 11  6  1  0  0  0
 19 13  1  0  0  0
 20 23  1  0  0  0
 33 35  1  0  0  0
 33 36  1  0  0  0
M  END
> <minimizedAffinity>
-4.69461

> <CNNscore>
0.1836034805

> <CNNaffinity>
5.3042225838

> <CNN_VS>
0.9738737345

> <CNNaffinity_variance>
0.2159597129

$$$$
[H]c1nc([H])c(N([H])C(=O)c2nn(-c3c([H])c([H])c([H])c([H])c3Cl)c(-c3c([H])c([H])c(Cl)c([H])c3[H])c2C([H])([H])C(=O)N([H])[H])c(C([H])([H])[H])c1[H]


 36 39  0  0  0  0  0  0  0  0999 V2000
   36.5425  -20.4164   36.8047 C   0  0  0  0  0  0  0  0  0  0  0  0
   37.5161  -19.5996   36.3738 N   0  0  0  0  0  0  0  0  0  0  0  0
   38.7089  -20.2068   36.4079 N   0  0  0  0  0  0  0  0  0  0  0  0
   38.5540  -21.4840   36.8775 C   0  0  0  0  0  0  0  0  0  0  0  0
   37.2015  -21.6049   37.1185 C   0  0  0  0  0  0  0  0  0  0  0  0
   39.8750  -19.5083   36.0261 C   0  0  0  0  0  0  0  0  0  0  0  0
   40.6866  -18.9448   36.9828 C   0  0  0  0  0  0  0  0  0  0  0  0
   41.8327  -18.2250   36.6242 C   0  0  0  0  0  0  0  0  0  0  0  0
   42.1735  -18.0653   35.2920 C   0  0  0  0  0  0  0  0  0  0  0  0
   41.3603  -18.6297   34.3403 C   0  0  0  0  0  0  0  0  0  0  0  0
   40.2343  -19.3368   34.6925 C   0  0  0  0  0  0  0  0  0  0  0  0
   39.1894  -20.0611   33.4912 Cl  0  0  0  0  0  0  0  0  0  0  0  0
   39.6430  -22.3952   37.1922 C   0  0  0  0  0  0  0  0  0  0  0  0
   40.3082  -22.4426   38.3910 C   0  0  0  0  0  0  0  0  0  0  0  0
   41.2716  -23.3863   38.7243 C   0  0  0  0  0  0  0  0  0  0  0  0
   41.6047  -24.3516   37.8086 C   0  0  0  0  0  0  0  0  0  0  0  0
   42.8195  -25.5271   38.2522 Cl  0  0  0  0  0  0  0  0  0  0  0  0
   40.9789  -24.3536   36.6018 C   0  0  0  0  0  0  0  0  0  0  0  0
   40.0098  -23.3958   36.2844 C   0  0  0  0  0  0  0  0  0  0  0  0
   34.2779  -20.4341   35.8327 N   0  0  0  0  0  0  0  0  0  0  0  0
   35.1180  -20.0901   36.9120 C   0  0  0  0  0  0  0  0  0  0  0  0
   34.6789  -19.5339   37.9165 O   0  0  0  0  0  0  0  0  0  0  0  0
   34.7855  -20.9174   35.0149 H   0  0  0  0  0  0  0  0  0  0  0  0
   32.6687  -22.6982   35.8488 C   0  0  0  0  0  0  0  0  0  0  0  0
   32.0603  -21.3632   35.7074 C   0  0  0  0  0  0  0  0  0  0  0  0
   30.6903  -21.2461   35.5859 C   0  0  0  0  0  0  0  0  0  0  0  0
   30.0857  -20.0216   35.4481 C   0  0  0  0  0  0  0  0  0  0  0  0
   30.8869  -18.9533   35.4375 N   0  0  0  0  0  0  0  0  0  0  0  0
   32.2504  -19.0353   35.5560 C   0  0  0  0  0  0  0  0  0  0  0  0
   32.8977  -20.2340   35.6956 C   0  0  0  0  0  0  0  0  0  0  0  0
   36.4475  -22.8206   37.5571 C   0  0  0  0  0  0  0  0  0  0  0  0
   36.5988  -22.8921   39.0622 C   0  0  0  0  0  0  0  0  0  0  0  0
   37.2641  -24.0103   39.5933 N   0  0  0  0  0  0  0  0  0  0  0  0
   36.1554  -22.0028   39.7979 O   0  0  0  0  0  0  0  0  0  0  0  0
   36.9815  -25.0126   39.3905 H   0  0  0  0  0  0  0  0  0  0  0  0
   38.1043  -23.9363   40.2413 H   0  0  0  0  0  0  0  0  0  0  0  0
 24 25  1  0  0  0
 25 26  2  0  0  0
 26 27  1  0  0  0
 27 28  2  0  0  0
 28 29  1  0  0  0
 29 30  2  0  0  0
 30 20  1  0  0  0
 20 21  1  0  0  0
 21 22  2  0  0  0
 21  1  1  0  0  0
  1  2  2  0  0  0
  2  3  1  0  0  0
  3  6  1  0  0  0
  6  7  2  0  0  0
  7  8  1  0  0  0
  8  9  2  0  0  0
  9 10  1  0  0  0
 10 11  2  0  0  0
 11 12  1  0  0  0
  3  4  1  0  0  0
  4 13  1  0  0  0
 13 14  2  0  0  0
 14 15  1  0  0  0
 15 16  2  0  0  0
 16 17  1  0  0  0
 16 18  1  0  0  0
 18 19  2  0  0  0
  4  5  2  0  0  0
  5 31  1  0  0  0
 31 32  1  0  0  0
 32 33  1  0  0  0
 32 34  2  0  0  0
 30 25  1  0  0  0
  5  1  1  0  0  0
 11  6  1  0  0  0
 19 13  1  0  0  0
 20 23  1  0  0  0
 33 35  1  0  0  0
 33 36  1  0  0  0
M  END
> <minimizedAffinity>
-4.94602

> <CNNscore>
0.1795345396

> <CNNaffinity>
5.5302276611

> <CNN_VS>
0.9928668737

> <CNNaffinity_variance>
0.0730088949

$$$$
[H]OC([H])([H])C([H])([H])n1c(C2([H])C([H])([H])C([H])([H])N(c3nc([H])nc(N([H])[H])c3C#N)C([H])([H])C2([H])[H])nc(-c2c([H])c([H])c(F)c(C([H])([H])[H])c2[H])c1[H]


 34 37  0  0  0  0  0  0  0  0999 V2000
   35.8697  -20.3331   37.2218 C   0  0  0  0  0  0  0  0  0  0  0  0
   35.5706  -21.6305   37.5652 C   0  0  0  0  0  0  0  0  0  0  0  0
   36.5641  -22.0584   38.4070 N   0  0  0  0  0  0  0  0  0  0  0  0
   37.4441  -21.0691   38.5798 C   0  0  0  0  0  0  0  0  0  0  0  0
   37.0019  -20.0316   37.8509 N   0  0  0  0  0  0  0  0  0  0  0  0
   32.1845  -19.6606   33.9088 C   0  0  0  0  0  0  0  0  0  0  0  0
   33.3002  -19.1441   34.7390 C   0  0  0  0  0  0  0  0  0  0  0  0
   34.0447  -19.9765   35.5754 C   0  0  0  0  0  0  0  0  0  0  0  0
   35.0726  -19.4920   36.3383 C   0  0  0  0  0  0  0  0  0  0  0  0
   35.3773  -18.1502   36.2769 C   0  0  0  0  0  0  0  0  0  0  0  0
   34.6582  -17.3023   35.4584 C   0  0  0  0  0  0  0  0  0  0  0  0
   33.6173  -17.8029   34.6884 C   0  0  0  0  0  0  0  0  0  0  0  0
   32.9324  -16.9263   33.8922 F   0  0  0  0  0  0  0  0  0  0  0  0
   38.6591  -21.0844   39.3910 C   0  0  0  0  0  0  0  0  0  0  0  0
   39.6608  -22.1007   38.8772 C   0  0  0  0  0  0  0  0  0  0  0  0
   40.9750  -21.6917   39.4940 C   0  0  0  0  0  0  0  0  0  0  0  0
   40.8649  -21.8117   40.9660 N   0  0  0  0  0  0  0  0  0  0  0  0
   39.7091  -21.2917   41.6104 C   0  0  0  0  0  0  0  0  0  0  0  0
   38.4035  -21.5001   40.8243 C   0  0  0  0  0  0  0  0  0  0  0  0
   41.9562  -22.4872   41.5674 C   0  0  0  0  0  0  0  0  0  0  0  0
   43.0851  -21.8002   41.9318 N   0  0  0  0  0  0  0  0  0  0  0  0
   44.1452  -22.4122   42.4652 C   0  0  0  0  0  0  0  0  0  0  0  0
   44.1620  -23.7298   42.6727 N   0  0  0  0  0  0  0  0  0  0  0  0
   43.0944  -24.4686   42.3426 C   0  0  0  0  0  0  0  0  0  0  0  0
   43.0604  -25.8843   42.5436 N   0  0  0  0  0  0  0  0  0  0  0  0
   41.9735  -23.8248   41.7798 C   0  0  0  0  0  0  0  0  0  0  0  0
   43.6813  -26.5066   41.9555 H   0  0  0  0  0  0  0  0  0  0  0  0
   42.4509  -26.3465   43.2457 H   0  0  0  0  0  0  0  0  0  0  0  0
   40.8318  -24.6555   41.4812 C   0  0  0  0  0  0  0  0  0  0  0  0
   39.8953  -25.3023   41.2542 N   0  0  0  0  0  0  0  0  0  0  0  0
   36.5618  -23.3777   38.9657 C   0  0  0  0  0  0  0  0  0  0  0  0
   35.1811  -23.9555   38.8711 C   0  0  0  0  0  0  0  0  0  0  0  0
   35.0985  -25.3142   39.0338 O   0  0  0  0  0  0  0  0  0  0  0  0
   34.3604  -25.5939   39.6530 H   0  0  0  0  0  0  0  0  0  0  0  0
  6  7  1  0  0  0
  7  8  2  0  0  0
  8  9  1  0  0  0
  9  1  1  0  0  0
  1  2  2  0  0  0
  2  3  1  0  0  0
  3 31  1  0  0  0
 31 32  1  0  0  0
 32 33  1  0  0  0
  3  4  1  0  0  0
  4 14  1  0  0  0
 14 15  1  0  0  0
 15 16  1  0  0  0
 16 17  1  0  0  0
 17 20  1  0  0  0
 20 21  2  0  0  0
 21 22  1  0  0  0
 22 23  2  0  0  0
 23 24  1  0  0  0
 24 25  1  0  0  0
 24 26  2  0  0  0
 26 29  1  0  0  0
 29 30  3  0  0  0
 17 18  1  0  0  0
 18 19  1  0  0  0
  4  5  2  0  0  0
  9 10  2  0  0  0
 10 11  1  0  0  0
 11 12  2  0  0  0
 12 13  1  0  0  0
 12  7  1  0  0  0
  5  1  1  0  0  0
 19 14  1  0  0  0
 26 20  1  0  0  0
 33 34  1  0  0  0
 25 27  1  0  0  0
 25 28  1  0  0  0
M  END
> <minimizedAffinity>
-3.55962

> <CNNscore>
0.4934186935

> <CNNaffinity>
5.0880880356

> <CNN_VS>
2.5105576515

> <CNNaffinity_variance>
0.0867963657

$$$$
[H]OC([H])([H])C([H])([H])n1c(C2([H])C([H])([H])C([H])([H])N(c3nc([H])nc(N([H])[H])c3C#N)C([H])([H])C2([H])[H])nc(-c2c([H])c([H])c(F)c(C([H])([H])[H])c2[H])c1[H]


 34 37  0  0  0  0  0  0  0  0999 V2000
   34.3162  -20.4677   36.4177 C   0  0  0  0  0  0  0  0  0  0  0  0
   35.0382  -19.3977   35.9440 C   0  0  0  0  0  0  0  0  0  0  0  0
   36.3530  -19.6399   36.2466 N   0  0  0  0  0  0  0  0  0  0  0  0
   36.4449  -20.8108   36.8818 C   0  0  0  0  0  0  0  0  0  0  0  0
   35.1959  -21.2953   36.9743 N   0  0  0  0  0  0  0  0  0  0  0  0
   29.8566  -19.0994   34.6151 C   0  0  0  0  0  0  0  0  0  0  0  0
   30.7095  -19.9793   35.4513 C   0  0  0  0  0  0  0  0  0  0  0  0
   32.0914  -19.8053   35.5346 C   0  0  0  0  0  0  0  0  0  0  0  0
   32.8712  -20.6216   36.3084 C   0  0  0  0  0  0  0  0  0  0  0  0
   32.2750  -21.6383   37.0210 C   0  0  0  0  0  0  0  0  0  0  0  0
   30.9099  -21.8347   36.9583 C   0  0  0  0  0  0  0  0  0  0  0  0
   30.1271  -21.0017   36.1706 C   0  0  0  0  0  0  0  0  0  0  0  0
   28.7793  -21.2334   36.1388 F   0  0  0  0  0  0  0  0  0  0  0  0
   37.6506  -21.4596   37.3915 C   0  0  0  0  0  0  0  0  0  0  0  0
   37.4111  -22.9270   37.6907 C   0  0  0  0  0  0  0  0  0  0  0  0
   38.7893  -23.5362   37.7573 C   0  0  0  0  0  0  0  0  0  0  0  0
   39.5258  -22.9191   38.8843 N   0  0  0  0  0  0  0  0  0  0  0  0
   39.4835  -21.5063   39.0375 C   0  0  0  0  0  0  0  0  0  0  0  0
   38.1181  -20.8787   38.7092 C   0  0  0  0  0  0  0  0  0  0  0  0
   40.1800  -23.8574   39.7213 C   0  0  0  0  0  0  0  0  0  0  0  0
   41.4267  -24.3274   39.3992 N   0  0  0  0  0  0  0  0  0  0  0  0
   42.0541  -25.2398   40.1455 C   0  0  0  0  0  0  0  0  0  0  0  0
   41.4988  -25.7441   41.2485 N   0  0  0  0  0  0  0  0  0  0  0  0
   40.2818  -25.3326   41.6281 C   0  0  0  0  0  0  0  0  0  0  0  0
   39.6411  -25.8410   42.8014 N   0  0  0  0  0  0  0  0  0  0  0  0
   39.6175  -24.3689   40.8422 C   0  0  0  0  0  0  0  0  0  0  0  0
   39.3139  -26.8467   42.8191 H   0  0  0  0  0  0  0  0  0  0  0  0
   39.4746  -25.2711   43.6532 H   0  0  0  0  0  0  0  0  0  0  0  0
   38.3282  -23.9249   41.3149 C   0  0  0  0  0  0  0  0  0  0  0  0
   37.3042  -23.5408   41.7033 N   0  0  0  0  0  0  0  0  0  0  0  0
   37.3906  -18.7196   35.8868 C   0  0  0  0  0  0  0  0  0  0  0  0
   38.1083  -19.2291   34.6726 C   0  0  0  0  0  0  0  0  0  0  0  0
   37.3617  -19.2773   33.5238 O   0  0  0  0  0  0  0  0  0  0  0  0
   37.8403  -18.9030   32.7254 H   0  0  0  0  0  0  0  0  0  0  0  0
  6  7  1  0  0  0
  7  8  2  0  0  0
  8  9  1  0  0  0
  9  1  1  0  0  0
  1  2  2  0  0  0
  2  3  1  0  0  0
  3 31  1  0  0  0
 31 32  1  0  0  0
 32 33  1  0  0  0
  3  4  1  0  0  0
  4 14  1  0  0  0
 14 15  1  0  0  0
 15 16  1  0  0  0
 16 17  1  0  0  0
 17 20  1  0  0  0
 20 21  2  0  0  0
 21 22  1  0  0  0
 22 23  2  0  0  0
 23 24  1  0  0  0
 24 25  1  0  0  0
 24 26  2  0  0  0
 26 29  1  0  0  0
 29 30  3  0  0  0
 17 18  1  0  0  0
 18 19  1  0  0  0
  4  5  2  0  0  0
  9 10  2  0  0  0
 10 11  1  0  0  0
 11 12  2  0  0  0
 12 13  1  0  0  0
 12  7  1  0  0  0
  5  1  1  0  0  0
 19 14  1  0  0  0
 26 20  1  0  0  0
 33 34  1  0  0  0
 25 27  1  0  0  0
 25 28  1  0  0  0
M  END
> <minimizedAffinity>
-3.89070

> <CNNscore>
0.3677853048

> <CNNaffinity>
5.0884037018

> <CNN_VS>
1.8714400530

> <CNNaffinity_variance>
0.0570233837

$$$$
[H]OC([H])([H])C([H])([H])n1c(C2([H])C([H])([H])C([H])([H])N(c3nc([H])nc(N([H])[H])c3C#N)C([H])([H])C2([H])[H])nc(-c2c([H])c([H])c(F)c(C([H])([H])[H])c2[H])c1[H]


 34 37  0  0  0  0  0  0  0  0999 V2000
   38.5824  -21.8330   36.4443 C   0  0  0  0  0  0  0  0  0  0  0  0
   37.2920  -21.9937   36.8913 C   0  0  0  0  0  0  0  0  0  0  0  0
   36.7135  -20.7510   36.8916 N   0  0  0  0  0  0  0  0  0  0  0  0
   37.6063  -19.8553   36.4632 C   0  0  0  0  0  0  0  0  0  0  0  0
   38.7335  -20.5350   36.1974 N   0  0  0  0  0  0  0  0  0  0  0  0
   40.5056  -25.7206   33.9549 C   0  0  0  0  0  0  0  0  0  0  0  0
   40.5023  -24.7823   35.1040 C   0  0  0  0  0  0  0  0  0  0  0  0
   39.5538  -23.7661   35.2245 C   0  0  0  0  0  0  0  0  0  0  0  0
   39.5576  -22.9044   36.2879 C   0  0  0  0  0  0  0  0  0  0  0  0
   40.5219  -23.0461   37.2610 C   0  0  0  0  0  0  0  0  0  0  0  0
   41.4734  -24.0423   37.1688 C   0  0  0  0  0  0  0  0  0  0  0  0
   41.4615  -24.9114   36.0864 C   0  0  0  0  0  0  0  0  0  0  0  0
   42.4232  -25.8831   36.0365 F   0  0  0  0  0  0  0  0  0  0  0  0
   37.4237  -18.4140   36.3085 C   0  0  0  0  0  0  0  0  0  0  0  0
   36.6814  -17.8154   37.4878 C   0  0  0  0  0  0  0  0  0  0  0  0
   36.9678  -16.3365   37.4125 C   0  0  0  0  0  0  0  0  0  0  0  0
   36.3965  -15.8072   36.1529 N   0  0  0  0  0  0  0  0  0  0  0  0
   36.6173  -16.5259   34.9462 C   0  0  0  0  0  0  0  0  0  0  0  0
   36.5738  -18.0549   35.1080 C   0  0  0  0  0  0  0  0  0  0  0  0
   35.6428  -14.6188   36.3224 C   0  0  0  0  0  0  0  0  0  0  0  0
   36.2329  -13.4845   36.8165 N   0  0  0  0  0  0  0  0  0  0  0  0
   35.5429  -12.3603   37.0241 C   0  0  0  0  0  0  0  0  0  0  0  0
   34.2377  -12.2810   36.7604 N   0  0  0  0  0  0  0  0  0  0  0  0
   33.5915  -13.3491   36.2742 C   0  0  0  0  0  0  0  0  0  0  0  0
   32.1933  -13.3180   35.9747 N   0  0  0  0  0  0  0  0  0  0  0  0
   34.3178  -14.5371   36.0535 C   0  0  0  0  0  0  0  0  0  0  0  0
   31.4950  -13.2473   36.7660 H   0  0  0  0  0  0  0  0  0  0  0  0
   31.8154  -13.3615   35.0087 H   0  0  0  0  0  0  0  0  0  0  0  0
   33.5883  -15.6465   35.4881 C   0  0  0  0  0  0  0  0  0  0  0  0
   33.0243  -16.5577   35.0425 N   0  0  0  0  0  0  0  0  0  0  0  0
   35.3545  -20.5529   37.2996 C   0  0  0  0  0  0  0  0  0  0  0  0
   34.5129  -21.6864   36.7934 C   0  0  0  0  0  0  0  0  0  0  0  0
   33.7741  -21.4161   35.6707 O   0  0  0  0  0  0  0  0  0  0  0  0
   33.8309  -22.1384   34.9769 H   0  0  0  0  0  0  0  0  0  0  0  0
  6  7  1  0  0  0
  7  8  2  0  0  0
  8  9  1  0  0  0
  9  1  1  0  0  0
  1  2  2  0  0  0
  2  3  1  0  0  0
  3 31  1  0  0  0
 31 32  1  0  0  0
 32 33  1  0  0  0
  3  4  1  0  0  0
  4 14  1  0  0  0
 14 15  1  0  0  0
 15 16  1  0  0  0
 16 17  1  0  0  0
 17 20  1  0  0  0
 20 21  2  0  0  0
 21 22  1  0  0  0
 22 23  2  0  0  0
 23 24  1  0  0  0
 24 25  1  0  0  0
 24 26  2  0  0  0
 26 29  1  0  0  0
 29 30  3  0  0  0
 17 18  1  0  0  0
 18 19  1  0  0  0
  4  5  2  0  0  0
  9 10  2  0  0  0
 10 11  1  0  0  0
 11 12  2  0  0  0
 12 13  1  0  0  0
 12  7  1  0  0  0
  5  1  1  0  0  0
 19 14  1  0  0  0
 26 20  1  0  0  0
 33 34  1  0  0  0
 25 27  1  0  0  0
 25 28  1  0  0  0
M  END
> <minimizedAffinity>
-4.61081

> <CNNscore>
0.3311153054

> <CNNaffinity>
5.7308268547

> <CNN_VS>
1.8975645304

> <CNNaffinity_variance>
0.0503831096

$$$$
[H]OC([H])([H])C([H])([H])n1c(C2([H])C([H])([H])C([H])([H])N(c3nc([H])nc(N([H])[H])c3C#N)C([H])([H])C2([H])[H])nc(-c2c([H])c([H])c(F)c(C([H])([H])[H])c2[H])c1[H]


 34 37  0  0  0  0  0  0  0  0999 V2000
   39.1080  -21.8619   36.6807 C   0  0  0  0  0  0  0  0  0  0  0  0
   37.8078  -22.2017   36.9714 C   0  0  0  0  0  0  0  0  0  0  0  0
   37.0732  -21.0456   36.9185 N   0  0  0  0  0  0  0  0  0  0  0  0
   37.8823  -20.0297   36.6083 C   0  0  0  0  0  0  0  0  0  0  0  0
   39.1127  -20.5491   36.4685 N   0  0  0  0  0  0  0  0  0  0  0  0
   42.5561  -24.7480   38.8695 C   0  0  0  0  0  0  0  0  0  0  0  0
   41.8999  -24.1910   37.6611 C   0  0  0  0  0  0  0  0  0  0  0  0
   40.8284  -23.3015   37.7467 C   0  0  0  0  0  0  0  0  0  0  0  0
   40.2283  -22.7922   36.6270 C   0  0  0  0  0  0  0  0  0  0  0  0
   40.6956  -23.1684   35.3871 C   0  0  0  0  0  0  0  0  0  0  0  0
   41.7543  -24.0469   35.2712 C   0  0  0  0  0  0  0  0  0  0  0  0
   42.3564  -24.5583   36.4127 C   0  0  0  0  0  0  0  0  0  0  0  0
   43.4020  -25.4253   36.2499 F   0  0  0  0  0  0  0  0  0  0  0  0
   37.5289  -18.6209   36.4503 C   0  0  0  0  0  0  0  0  0  0  0  0
   36.4893  -18.1887   37.4664 C   0  0  0  0  0  0  0  0  0  0  0  0
   36.5695  -16.6827   37.4823 C   0  0  0  0  0  0  0  0  0  0  0  0
   36.1893  -16.1742   36.1443 N   0  0  0  0  0  0  0  0  0  0  0  0
   36.7460  -16.7951   34.9928 C   0  0  0  0  0  0  0  0  0  0  0  0
   36.8914  -18.3219   35.1099 C   0  0  0  0  0  0  0  0  0  0  0  0
   35.2542  -15.1097   36.1821 C   0  0  0  0  0  0  0  0  0  0  0  0
   33.9472  -15.3179   35.8252 N   0  0  0  0  0  0  0  0  0  0  0  0
   33.0503  -14.3287   35.8131 C   0  0  0  0  0  0  0  0  0  0  0  0
   33.3798  -13.0806   36.1491 N   0  0  0  0  0  0  0  0  0  0  0  0
   34.6389  -12.7997   36.5103 C   0  0  0  0  0  0  0  0  0  0  0  0
   35.0452  -11.4789   36.8794 N   0  0  0  0  0  0  0  0  0  0  0  0
   35.5877  -13.8424   36.5245 C   0  0  0  0  0  0  0  0  0  0  0  0
   35.0809  -10.7221   36.1413 H   0  0  0  0  0  0  0  0  0  0  0  0
   35.3124  -11.2134   37.8469 H   0  0  0  0  0  0  0  0  0  0  0  0
   36.9196  -13.5000   36.9622 C   0  0  0  0  0  0  0  0  0  0  0  0
   37.9787  -13.2139   37.3407 N   0  0  0  0  0  0  0  0  0  0  0  0
   35.6621  -21.0378   37.1667 C   0  0  0  0  0  0  0  0  0  0  0  0
   35.4169  -21.0896   38.6453 C   0  0  0  0  0  0  0  0  0  0  0  0
   34.1689  -20.6920   39.0499 O   0  0  0  0  0  0  0  0  0  0  0  0
   33.7531  -21.3142   39.7181 H   0  0  0  0  0  0  0  0  0  0  0  0
  6  7  1  0  0  0
  7  8  2  0  0  0
  8  9  1  0  0  0
  9  1  1  0  0  0
  1  2  2  0  0  0
  2  3  1  0  0  0
  3 31  1  0  0  0
 31 32  1  0  0  0
 32 33  1  0  0  0
  3  4  1  0  0  0
  4 14  1  0  0  0
 14 15  1  0  0  0
 15 16  1  0  0  0
 16 17  1  0  0  0
 17 20  1  0  0  0
 20 21  2  0  0  0
 21 22  1  0  0  0
 22 23  2  0  0  0
 23 24  1  0  0  0
 24 25  1  0  0  0
 24 26  2  0  0  0
 26 29  1  0  0  0
 29 30  3  0  0  0
 17 18  1  0  0  0
 18 19  1  0  0  0
  4  5  2  0  0  0
  9 10  2  0  0  0
 10 11  1  0  0  0
 11 12  2  0  0  0
 12 13  1  0  0  0
 12  7  1  0  0  0
  5  1  1  0  0  0
 19 14  1  0  0  0
 26 20  1  0  0  0
 33 34  1  0  0  0
 25 27  1  0  0  0
 25 28  1  0  0  0
M  END
> <minimizedAffinity>
-4.70922

> <CNNscore>
0.3036170304

> <CNNaffinity>
5.9436964989

> <CNN_VS>
1.8046075106

> <CNNaffinity_variance>
0.0688565820

$$$$
[H]OC([H])([H])C([H])([H])n1c(C2([H])C([H])([H])C([H])([H])N(c3nc([H])nc(N([H])[H])c3C#N)C([H])([H])C2([H])[H])nc(-c2c([H])c([H])c(F)c(C([H])([H])[H])c2[H])c1[H]


 34 37  0  0  0  0  0  0  0  0999 V2000
   38.1298  -21.0576   38.7559 C   0  0  0  0  0  0  0  0  0  0  0  0
   37.7317  -21.2042   40.0638 C   0  0  0  0  0  0  0  0  0  0  0  0
   36.3876  -21.4725   40.0428 N   0  0  0  0  0  0  0  0  0  0  0  0
   35.9675  -21.4919   38.7755 C   0  0  0  0  0  0  0  0  0  0  0  0
   37.0424  -21.2376   38.0118 N   0  0  0  0  0  0  0  0  0  0  0  0
   41.4001  -18.6843   35.8093 C   0  0  0  0  0  0  0  0  0  0  0  0
   41.0840  -19.6295   36.9083 C   0  0  0  0  0  0  0  0  0  0  0  0
   39.7714  -19.8898   37.3035 C   0  0  0  0  0  0  0  0  0  0  0  0
   39.4883  -20.7632   38.3185 C   0  0  0  0  0  0  0  0  0  0  0  0
   40.5258  -21.3991   38.9636 C   0  0  0  0  0  0  0  0  0  0  0  0
   41.8348  -21.1615   38.5945 C   0  0  0  0  0  0  0  0  0  0  0  0
   42.1121  -20.2738   37.5638 C   0  0  0  0  0  0  0  0  0  0  0  0
   43.4235  -20.0693   37.2321 F   0  0  0  0  0  0  0  0  0  0  0  0
   34.6124  -21.7339   38.2861 C   0  0  0  0  0  0  0  0  0  0  0  0
   34.3029  -23.2166   38.2093 C   0  0  0  0  0  0  0  0  0  0  0  0
   32.7980  -23.2927   38.1415 C   0  0  0  0  0  0  0  0  0  0  0  0
   32.3462  -22.6316   36.8956 N   0  0  0  0  0  0  0  0  0  0  0  0
   32.9018  -21.3692   36.5505 C   0  0  0  0  0  0  0  0  0  0  0  0
   34.3993  -21.2318   36.8736 C   0  0  0  0  0  0  0  0  0  0  0  0
   31.4017  -23.3881   36.1576 C   0  0  0  0  0  0  0  0  0  0  0  0
   31.8084  -24.4382   35.3760 N   0  0  0  0  0  0  0  0  0  0  0  0
   30.9495  -25.1466   34.6389 C   0  0  0  0  0  0  0  0  0  0  0  0
   29.6449  -24.8690   34.6240 N   0  0  0  0  0  0  0  0  0  0  0  0
   29.1720  -23.8569   35.3634 C   0  0  0  0  0  0  0  0  0  0  0  0
   27.7828  -23.5169   35.3835 N   0  0  0  0  0  0  0  0  0  0  0  0
   30.0767  -23.1078   36.1431 C   0  0  0  0  0  0  0  0  0  0  0  0
   27.3381  -23.1016   34.5183 H   0  0  0  0  0  0  0  0  0  0  0  0
   27.1731  -23.6560   36.2123 H   0  0  0  0  0  0  0  0  0  0  0  0
   29.5145  -22.0561   36.9559 C   0  0  0  0  0  0  0  0  0  0  0  0
   29.0853  -21.2145   37.6300 N   0  0  0  0  0  0  0  0  0  0  0  0
   35.6439  -21.6897   41.2480 C   0  0  0  0  0  0  0  0  0  0  0  0
   34.9882  -20.4073   41.6657 C   0  0  0  0  0  0  0  0  0  0  0  0
   34.5943  -20.3469   42.9774 O   0  0  0  0  0  0  0  0  0  0  0  0
   34.8501  -19.4877   43.4277 H   0  0  0  0  0  0  0  0  0  0  0  0
  6  7  1  0  0  0
  7  8  2  0  0  0
  8  9  1  0  0  0
  9  1  1  0  0  0
  1  2  2  0  0  0
  2  3  1  0  0  0
  3 31  1  0  0  0
 31 32  1  0  0  0
 32 33  1  0  0  0
  3  4  1  0  0  0
  4 14  1  0  0  0
 14 15  1  0  0  0
 15 16  1  0  0  0
 16 17  1  0  0  0
 17 20  1  0  0  0
 20 21  2  0  0  0
 21 22  1  0  0  0
 22 23  2  0  0  0
 23 24  1  0  0  0
 24 25  1  0  0  0
 24 26  2  0  0  0
 26 29  1  0  0  0
 29 30  3  0  0  0
 17 18  1  0  0  0
 18 19  1  0  0  0
  4  5  2  0  0  0
  9 10  2  0  0  0
 10 11  1  0  0  0
 11 12  2  0  0  0
 12 13  1  0  0  0
 12  7  1  0  0  0
  5  1  1  0  0  0
 19 14  1  0  0  0
 26 20  1  0  0  0
 33 34  1  0  0  0
 25 27  1  0  0  0
 25 28  1  0  0  0
M  END
> <minimizedAffinity>
-4.00741

> <CNNscore>
0.3035638928

> <CNNaffinity>
4.8410201073

> <CNN_VS>
1.4695589542

> <CNNaffinity_variance>
0.0953694433

$$$$
[H]OC([H])([H])C([H])([H])n1c(C2([H])C([H])([H])C([H])([H])N(c3nc([H])nc(N([H])[H])c3C#N)C([H])([H])C2([H])[H])nc(-c2c([H])c([H])c(F)c(C([H])([H])[H])c2[H])c1[H]


 34 37  0  0  0  0  0  0  0  0999 V2000
   34.5599  -15.9830   35.9952 C   0  0  0  0  0  0  0  0  0  0  0  0
   35.7101  -16.6426   35.6313 C   0  0  0  0  0  0  0  0  0  0  0  0
   35.3630  -17.9478   35.3969 N   0  0  0  0  0  0  0  0  0  0  0  0
   34.0524  -18.0939   35.6064 C   0  0  0  0  0  0  0  0  0  0  0  0
   33.5857  -16.8880   35.9686 N   0  0  0  0  0  0  0  0  0  0  0  0
   32.1466  -12.0449   37.9127 C   0  0  0  0  0  0  0  0  0  0  0  0
   33.3279  -12.6547   37.2542 C   0  0  0  0  0  0  0  0  0  0  0  0
   33.3795  -14.0137   36.9422 C   0  0  0  0  0  0  0  0  0  0  0  0
   34.4733  -14.5686   36.3347 C   0  0  0  0  0  0  0  0  0  0  0  0
   35.5474  -13.7639   36.0251 C   0  0  0  0  0  0  0  0  0  0  0  0
   35.5250  -12.4157   36.3217 C   0  0  0  0  0  0  0  0  0  0  0  0
   34.4111  -11.8620   36.9380 C   0  0  0  0  0  0  0  0  0  0  0  0
   34.4330  -10.5221   37.2130 F   0  0  0  0  0  0  0  0  0  0  0  0
   33.2568  -19.3127   35.4796 C   0  0  0  0  0  0  0  0  0  0  0  0
   31.7867  -19.0011   35.2751 C   0  0  0  0  0  0  0  0  0  0  0  0
   31.1968  -20.2740   34.7212 C   0  0  0  0  0  0  0  0  0  0  0  0
   31.3356  -21.3418   35.7381 N   0  0  0  0  0  0  0  0  0  0  0  0
   32.5826  -21.4952   36.4034 C   0  0  0  0  0  0  0  0  0  0  0  0
   33.2894  -20.1683   36.7284 C   0  0  0  0  0  0  0  0  0  0  0  0
   30.1479  -22.0854   35.9514 C   0  0  0  0  0  0  0  0  0  0  0  0
   29.2022  -21.6470   36.8416 N   0  0  0  0  0  0  0  0  0  0  0  0
   28.0908  -22.3428   37.0940 C   0  0  0  0  0  0  0  0  0  0  0  0
   27.8409  -23.5059   36.4908 N   0  0  0  0  0  0  0  0  0  0  0  0
   28.7188  -23.9988   35.6071 C   0  0  0  0  0  0  0  0  0  0  0  0
   28.4997  -25.2410   34.9327 N   0  0  0  0  0  0  0  0  0  0  0  0
   29.8927  -23.2658   35.3383 C   0  0  0  0  0  0  0  0  0  0  0  0
   28.5369  -26.1434   35.4831 H   0  0  0  0  0  0  0  0  0  0  0  0
   28.3026  -25.3113   33.9157 H   0  0  0  0  0  0  0  0  0  0  0  0
   30.7865  -23.8153   34.3474 C   0  0  0  0  0  0  0  0  0  0  0  0
   31.4855  -24.2483   33.5283 N   0  0  0  0  0  0  0  0  0  0  0  0
   36.3301  -18.9227   34.9880 C   0  0  0  0  0  0  0  0  0  0  0  0
   37.6234  -18.6710   35.7042 C   0  0  0  0  0  0  0  0  0  0  0  0
   38.6979  -18.3923   34.8997 O   0  0  0  0  0  0  0  0  0  0  0  0
   39.2369  -17.6081   35.2178 H   0  0  0  0  0  0  0  0  0  0  0  0
  6  7  1  0  0  0
  7  8  2  0  0  0
  8  9  1  0  0  0
  9  1  1  0  0  0
  1  2  2  0  0  0
  2  3  1  0  0  0
  3 31  1  0  0  0
 31 32  1  0  0  0
 32 33  1  0  0  0
  3  4  1  0  0  0
  4 14  1  0  0  0
 14 15  1  0  0  0
 15 16  1  0  0  0
 16 17  1  0  0  0
 17 20  1  0  0  0
 20 21  2  0  0  0
 21 22  1  0  0  0
 22 23  2  0  0  0
 23 24  1  0  0  0
 24 25  1  0  0  0
 24 26  2  0  0  0
 26 29  1  0  0  0
 29 30  3  0  0  0
 17 18  1  0  0  0
 18 19  1  0  0  0
  4  5  2  0  0  0
  9 10  2  0  0  0
 10 11  1  0  0  0
 11 12  2  0  0  0
 12 13  1  0  0  0
 12  7  1  0  0  0
  5  1  1  0  0  0
 19 14  1  0  0  0
 26 20  1  0  0  0
 33 34  1  0  0  0
 25 27  1  0  0  0
 25 28  1  0  0  0
M  END
> <minimizedAffinity>
-7.52381

> <CNNscore>
0.2851377726

> <CNNaffinity>
5.8046741486

> <CNN_VS>
1.6551318169

> <CNNaffinity_variance>
0.1826415956

$$$$
[H]OC([H])([H])C([H])([H])n1c(C2([H])C([H])([H])C([H])([H])N(c3nc([H])nc(N([H])[H])c3C#N)C([H])([H])C2([H])[H])nc(-c2c([H])c([H])c(F)c(C([H])([H])[H])c2[H])c1[H]


 34 37  0  0  0  0  0  0  0  0999 V2000
   33.8648  -21.9992   37.6313 C   0  0  0  0  0  0  0  0  0  0  0  0
   34.0734  -22.7605   38.7571 C   0  0  0  0  0  0  0  0  0  0  0  0
   35.4295  -22.8321   38.9434 N   0  0  0  0  0  0  0  0  0  0  0  0
   36.0387  -22.1445   37.9744 C   0  0  0  0  0  0  0  0  0  0  0  0
   35.0689  -21.6476   37.1896 N   0  0  0  0  0  0  0  0  0  0  0  0
   30.8839  -19.2094   34.7432 C   0  0  0  0  0  0  0  0  0  0  0  0
   31.1048  -20.3362   35.6827 C   0  0  0  0  0  0  0  0  0  0  0  0
   32.3663  -20.6269   36.2032 C   0  0  0  0  0  0  0  0  0  0  0  0
   32.5617  -21.6684   37.0694 C   0  0  0  0  0  0  0  0  0  0  0  0
   31.4855  -22.4466   37.4343 C   0  0  0  0  0  0  0  0  0  0  0  0
   30.2254  -22.1831   36.9355 C   0  0  0  0  0  0  0  0  0  0  0  0
   30.0371  -21.1245   36.0574 C   0  0  0  0  0  0  0  0  0  0  0  0
   28.7716  -20.9006   35.5885 F   0  0  0  0  0  0  0  0  0  0  0  0
   37.4742  -21.9565   37.7778 C   0  0  0  0  0  0  0  0  0  0  0  0
   37.8194  -20.4985   37.5429 C   0  0  0  0  0  0  0  0  0  0  0  0
   39.3006  -20.4055   37.8118 C   0  0  0  0  0  0  0  0  0  0  0  0
   40.0150  -21.2447   36.8225 N   0  0  0  0  0  0  0  0  0  0  0  0
   39.5312  -22.5559   36.5611 C   0  0  0  0  0  0  0  0  0  0  0  0
   37.9973  -22.6693   36.5487 C   0  0  0  0  0  0  0  0  0  0  0  0
   41.1172  -20.5954   36.2122 C   0  0  0  0  0  0  0  0  0  0  0  0
   42.3671  -20.6732   36.7696 N   0  0  0  0  0  0  0  0  0  0  0  0
   43.4186  -20.0420   36.2412 C   0  0  0  0  0  0  0  0  0  0  0  0
   43.3080  -19.2996   35.1385 N   0  0  0  0  0  0  0  0  0  0  0  0
   42.1176  -19.1767   34.5363 C   0  0  0  0  0  0  0  0  0  0  0  0
   41.9441  -18.3930   33.3525 N   0  0  0  0  0  0  0  0  0  0  0  0
   41.0060  -19.8426   35.0918 C   0  0  0  0  0  0  0  0  0  0  0  0
   42.0312  -17.3405   33.4100 H   0  0  0  0  0  0  0  0  0  0  0  0
   41.7335  -18.8032   32.4222 H   0  0  0  0  0  0  0  0  0  0  0  0
   39.7550  -19.7158   34.3835 C   0  0  0  0  0  0  0  0  0  0  0  0
   38.7447  -19.6445   33.8169 N   0  0  0  0  0  0  0  0  0  0  0  0
   36.0020  -23.5519   40.0419 C   0  0  0  0  0  0  0  0  0  0  0  0
   34.9170  -23.9401   41.0017 C   0  0  0  0  0  0  0  0  0  0  0  0
   34.7576  -25.2876   41.1973 O   0  0  0  0  0  0  0  0  0  0  0  0
   34.6688  -25.5388   42.1645 H   0  0  0  0  0  0  0  0  0  0  0  0
  6  7  1  0  0  0
  7  8  2  0  0  0
  8  9  1  0  0  0
  9  1  1  0  0  0
  1  2  2  0  0  0
  2  3  1  0  0  0
  3 31  1  0  0  0
 31 32  1  0  0  0
 32 33  1  0  0  0
  3  4  1  0  0  0
  4 14  1  0  0  0
 14 15  1  0  0  0
 15 16  1  0  0  0
 16 17  1  0  0  0
 17 20  1  0  0  0
 20 21  2  0  0  0
 21 22  1  0  0  0
 22 23  2  0  0  0
 23 24  1  0  0  0
 24 25  1  0  0  0
 24 26  2  0  0  0
 26 29  1  0  0  0
 29 30  3  0  0  0
 17 18  1  0  0  0
 18 19  1  0  0  0
  4  5  2  0  0  0
  9 10  2  0  0  0
 10 11  1  0  0  0
 11 12  2  0  0  0
 12 13  1  0  0  0
 12  7  1  0  0  0
  5  1  1  0  0  0
 19 14  1  0  0  0
 26 20  1  0  0  0
 33 34  1  0  0  0
 25 27  1  0  0  0
 25 28  1  0  0  0
M  END
> <minimizedAffinity>
-4.45360

> <CNNscore>
0.2702830434

> <CNNaffinity>
5.1739945412

> <CNN_VS>
1.3984429836

> <CNNaffinity_variance>
0.1982764453

$$$$
[H]OC([H])([H])C([H])([H])n1c(C2([H])C([H])([H])C([H])([H])N(c3nc([H])nc(N([H])[H])c3C#N)C([H])([H])C2([H])[H])nc(-c2c([H])c([H])c(F)c(C([H])([H])[H])c2[H])c1[H]


 34 37  0  0  0  0  0  0  0  0999 V2000
   39.9895  -20.2005   38.3300 C   0  0  0  0  0  0  0  0  0  0  0  0
   39.9601  -21.0912   39.3771 C   0  0  0  0  0  0  0  0  0  0  0  0
   38.6809  -21.5784   39.4493 N   0  0  0  0  0  0  0  0  0  0  0  0
   37.9457  -21.0145   38.4878 C   0  0  0  0  0  0  0  0  0  0  0  0
   38.7611  -20.1817   37.8209 N   0  0  0  0  0  0  0  0  0  0  0  0
   42.6183  -17.7309   34.8660 C   0  0  0  0  0  0  0  0  0  0  0  0
   42.4459  -18.2523   36.2441 C   0  0  0  0  0  0  0  0  0  0  0  0
   41.3118  -18.9702   36.6253 C   0  0  0  0  0  0  0  0  0  0  0  0
   41.1603  -19.4477   37.8990 C   0  0  0  0  0  0  0  0  0  0  0  0
   42.1528  -19.2128   38.8246 C   0  0  0  0  0  0  0  0  0  0  0  0
   43.2863  -18.5056   38.4765 C   0  0  0  0  0  0  0  0  0  0  0  0
   43.4310  -18.0251   37.1821 C   0  0  0  0  0  0  0  0  0  0  0  0
   44.5704  -17.3300   36.8822 F   0  0  0  0  0  0  0  0  0  0  0  0
   36.5310  -21.2359   38.1977 C   0  0  0  0  0  0  0  0  0  0  0  0
   36.1901  -20.8672   36.7666 C   0  0  0  0  0  0  0  0  0  0  0  0
   34.8755  -21.5548   36.4947 C   0  0  0  0  0  0  0  0  0  0  0  0
   33.8503  -20.9931   37.4039 N   0  0  0  0  0  0  0  0  0  0  0  0
   34.1714  -20.8293   38.7792 C   0  0  0  0  0  0  0  0  0  0  0  0
   35.6163  -20.3692   39.0372 C   0  0  0  0  0  0  0  0  0  0  0  0
   32.6396  -20.6450   36.7544 C   0  0  0  0  0  0  0  0  0  0  0  0
   32.5050  -19.4282   36.1377 N   0  0  0  0  0  0  0  0  0  0  0  0
   31.3657  -19.0542   35.5502 C   0  0  0  0  0  0  0  0  0  0  0  0
   30.2939  -19.8480   35.5321 N   0  0  0  0  0  0  0  0  0  0  0  0
   30.3494  -21.0535   36.1138 C   0  0  0  0  0  0  0  0  0  0  0  0
   29.2295  -21.9432   36.1233 N   0  0  0  0  0  0  0  0  0  0  0  0
   31.5513  -21.4510   36.7343 C   0  0  0  0  0  0  0  0  0  0  0  0
   28.3767  -21.6973   36.6987 H   0  0  0  0  0  0  0  0  0  0  0  0
   29.2030  -22.8330   35.5890 H   0  0  0  0  0  0  0  0  0  0  0  0
   31.5764  -22.7747   37.3088 C   0  0  0  0  0  0  0  0  0  0  0  0
   31.6274  -23.8399   37.7665 N   0  0  0  0  0  0  0  0  0  0  0  0
   38.2973  -22.5445   40.4353 C   0  0  0  0  0  0  0  0  0  0  0  0
   37.7695  -21.8358   41.6470 C   0  0  0  0  0  0  0  0  0  0  0  0
   38.7148  -21.4462   42.5602 O   0  0  0  0  0  0  0  0  0  0  0  0
   38.5899  -20.5038   42.8808 H   0  0  0  0  0  0  0  0  0  0  0  0
  6  7  1  0  0  0
  7  8  2  0  0  0
  8  9  1  0  0  0
  9  1  1  0  0  0
  1  2  2  0  0  0
  2  3  1  0  0  0
  3 31  1  0  0  0
 31 32  1  0  0  0
 32 33  1  0  0  0
  3  4  1  0  0  0
  4 14  1  0  0  0
 14 15  1  0  0  0
 15 16  1  0  0  0
 16 17  1  0  0  0
 17 20  1  0  0  0
 20 21  2  0  0  0
 21 22  1  0  0  0
 22 23  2  0  0  0
 23 24  1  0  0  0
 24 25  1  0  0  0
 24 26  2  0  0  0
 26 29  1  0  0  0
 29 30  3  0  0  0
 17 18  1  0  0  0
 18 19  1  0  0  0
  4  5  2  0  0  0
  9 10  2  0  0  0
 10 11  1  0  0  0
 11 12  2  0  0  0
 12 13  1  0  0  0
 12  7  1  0  0  0
  5  1  1  0  0  0
 19 14  1  0  0  0
 26 20  1  0  0  0
 33 34  1  0  0  0
 25 27  1  0  0  0
 25 28  1  0  0  0
M  END
> <minimizedAffinity>
-4.73969

> <CNNscore>
0.2672271729

> <CNNaffinity>
4.8698835373

> <CNN_VS>
1.3013652563

> <CNNaffinity_variance>
0.0930453986

$$$$
[H]OC([H])([H])C([H])([H])n1c(C2([H])C([H])([H])C([H])([H])N(c3nc([H])nc(N([H])[H])c3C#N)C([H])([H])C2([H])[H])nc(-c2c([H])c([H])c(F)c(C([H])([H])[H])c2[H])c1[H]


 34 37  0  0  0  0  0  0  0  0999 V2000
   38.4930  -20.7191   35.0956 C   0  0  0  0  0  0  0  0  0  0  0  0
   37.8663  -19.6203   34.5565 C   0  0  0  0  0  0  0  0  0  0  0  0
   36.7842  -19.3489   35.3529 N   0  0  0  0  0  0  0  0  0  0  0  0
   36.7395  -20.2412   36.3452 C   0  0  0  0  0  0  0  0  0  0  0  0
   37.7867  -21.0630   36.1687 N   0  0  0  0  0  0  0  0  0  0  0  0
   40.9886  -24.6795   33.3360 C   0  0  0  0  0  0  0  0  0  0  0  0
   40.9172  -23.2456   33.7097 C   0  0  0  0  0  0  0  0  0  0  0  0
   39.7513  -22.6727   34.2191 C   0  0  0  0  0  0  0  0  0  0  0  0
   39.6936  -21.3488   34.5614 C   0  0  0  0  0  0  0  0  0  0  0  0
   40.8147  -20.5655   34.3982 C   0  0  0  0  0  0  0  0  0  0  0  0
   41.9825  -21.1046   33.8965 C   0  0  0  0  0  0  0  0  0  0  0  0
   42.0314  -22.4485   33.5520 C   0  0  0  0  0  0  0  0  0  0  0  0
   43.2093  -22.9393   33.0590 F   0  0  0  0  0  0  0  0  0  0  0  0
   35.7556  -20.3335   37.4213 C   0  0  0  0  0  0  0  0  0  0  0  0
   36.4098  -20.6630   38.7493 C   0  0  0  0  0  0  0  0  0  0  0  0
   35.3853  -20.2813   39.7883 C   0  0  0  0  0  0  0  0  0  0  0  0
   34.1870  -21.1325   39.6068 N   0  0  0  0  0  0  0  0  0  0  0  0
   33.6733  -21.3199   38.2944 C   0  0  0  0  0  0  0  0  0  0  0  0
   34.7548  -21.4495   37.2083 C   0  0  0  0  0  0  0  0  0  0  0  0
   33.7035  -21.7028   40.8109 C   0  0  0  0  0  0  0  0  0  0  0  0
   32.9179  -20.9698   41.6623 N   0  0  0  0  0  0  0  0  0  0  0  0
   32.4778  -21.4641   42.8220 C   0  0  0  0  0  0  0  0  0  0  0  0
   32.7804  -22.7024   43.2151 N   0  0  0  0  0  0  0  0  0  0  0  0
   33.5436  -23.4797   42.4354 C   0  0  0  0  0  0  0  0  0  0  0  0
   33.8976  -24.8141   42.8094 N   0  0  0  0  0  0  0  0  0  0  0  0
   34.0090  -22.9604   41.2101 C   0  0  0  0  0  0  0  0  0  0  0  0
   34.5588  -24.9671   43.6207 H   0  0  0  0  0  0  0  0  0  0  0  0
   33.5377  -25.6577   42.3229 H   0  0  0  0  0  0  0  0  0  0  0  0
   34.7907  -23.8497   40.3851 C   0  0  0  0  0  0  0  0  0  0  0  0
   35.4442  -24.5467   39.7262 N   0  0  0  0  0  0  0  0  0  0  0  0
   35.9046  -18.2514   35.0801 C   0  0  0  0  0  0  0  0  0  0  0  0
   35.1207  -18.5399   33.8346 C   0  0  0  0  0  0  0  0  0  0  0  0
   34.4651  -19.7438   33.8166 O   0  0  0  0  0  0  0  0  0  0  0  0
   33.5172  -19.6728   33.4958 H   0  0  0  0  0  0  0  0  0  0  0  0
  6  7  1  0  0  0
  7  8  2  0  0  0
  8  9  1  0  0  0
  9  1  1  0  0  0
  1  2  2  0  0  0
  2  3  1  0  0  0
  3 31  1  0  0  0
 31 32  1  0  0  0
 32 33  1  0  0  0
  3  4  1  0  0  0
  4 14  1  0  0  0
 14 15  1  0  0  0
 15 16  1  0  0  0
 16 17  1  0  0  0
 17 20  1  0  0  0
 20 21  2  0  0  0
 21 22  1  0  0  0
 22 23  2  0  0  0
 23 24  1  0  0  0
 24 25  1  0  0  0
 24 26  2  0  0  0
 26 29  1  0  0  0
 29 30  3  0  0  0
 17 18  1  0  0  0
 18 19  1  0  0  0
  4  5  2  0  0  0
  9 10  2  0  0  0
 10 11  1  0  0  0
 11 12  2  0  0  0
 12 13  1  0  0  0
 12  7  1  0  0  0
  5  1  1  0  0  0
 19 14  1  0  0  0
 26 20  1  0  0  0
 33 34  1  0  0  0
 25 27  1  0  0  0
 25 28  1  0  0  0
M  END
> <minimizedAffinity>
-4.30187

> <CNNscore>
0.1950305849

> <CNNaffinity>
4.8801560402

> <CNN_VS>
0.9517796636

> <CNNaffinity_variance>
0.0803172663

$$$$
[H]Cl.[H]O[C@]([H])(C(=O)N([H])[C@]([H])(C(=O)OC([H])([H])n1c([H])c(F)c(=O)n([H])c1=O)C([H])([H])C([H])(C([H])([H])[H])C([H])([H])[H])[C@]([H])(N([H])[H])C([H])([H])c1c([H])c([H])c([H])c([H])c1[H]


 37 38  0  0  0  0  0  0  0  0999 V2000
   34.5513  -15.3284   36.2450 C   0  0  0  0  0  0  0  0  0  0  0  0
   33.8992  -16.1849   35.2465 N   0  0  0  0  0  0  0  0  0  0  0  0
   34.1364  -17.5859   35.2004 C   0  0  0  0  0  0  0  0  0  0  0  0
   34.9240  -18.0741   36.0417 O   0  0  0  0  0  0  0  0  0  0  0  0
   33.2411  -15.7902   34.5397 H   0  0  0  0  0  0  0  0  0  0  0  0
   33.4874  -18.4691   34.2000 C   0  0  0  0  0  0  0  0  0  0  0  0
   34.1700  -19.6766   34.1455 O   0  0  0  0  0  0  0  0  0  0  0  0
   33.8206  -20.2837   34.8391 H   0  0  0  0  0  0  0  0  0  0  0  0
   32.0355  -18.7564   34.5564 C   0  0  0  0  0  0  0  0  0  0  0  0
   31.7097  -18.3212   35.8776 N   0  0  0  0  0  0  0  0  0  0  0  0
   30.7748  -17.8803   35.9650 H   0  0  0  0  0  0  0  0  0  0  0  0
   31.9498  -18.9601   36.6398 H   0  0  0  0  0  0  0  0  0  0  0  0
   31.8321  -20.2386   34.3985 C   0  0  0  0  0  0  0  0  0  0  0  0
   30.9251  -20.8197   35.4096 C   0  0  0  0  0  0  0  0  0  0  0  0
   31.3651  -21.6663   36.4135 C   0  0  0  0  0  0  0  0  0  0  0  0
   30.5125  -22.2086   37.3595 C   0  0  0  0  0  0  0  0  0  0  0  0
   29.1828  -21.9083   37.3166 C   0  0  0  0  0  0  0  0  0  0  0  0
   28.7012  -21.0740   36.3399 C   0  0  0  0  0  0  0  0  0  0  0  0
   29.5549  -20.5430   35.4087 C   0  0  0  0  0  0  0  0  0  0  0  0
   33.6020  -14.2772   36.6865 C   0  0  0  0  0  0  0  0  0  0  0  0
   32.9577  -13.6645   35.7639 O   0  0  0  0  0  0  0  0  0  0  0  0
   33.3304  -13.8852   37.9510 O   0  0  0  0  0  0  0  0  0  0  0  0
   32.4505  -12.9686   38.4722 C   0  0  0  0  0  0  0  0  0  0  0  0
   32.4631  -11.6463   37.9360 N   0  0  0  0  0  0  0  0  0  0  0  0
   33.5230  -10.8316   37.8315 C   0  0  0  0  0  0  0  0  0  0  0  0
   33.4213   -9.5387   37.3024 C   0  0  0  0  0  0  0  0  0  0  0  0
   34.5021   -8.7388   37.2074 F   0  0  0  0  0  0  0  0  0  0  0  0
   32.2073   -9.0758   36.8736 C   0  0  0  0  0  0  0  0  0  0  0  0
   32.0046   -7.9418   36.3864 O   0  0  0  0  0  0  0  0  0  0  0  0
   31.1518   -9.9185   36.9904 N   0  0  0  0  0  0  0  0  0  0  0  0
   31.2819  -11.1417   37.4978 C   0  0  0  0  0  0  0  0  0  0  0  0
   30.2225  -11.8557   37.5632 O   0  0  0  0  0  0  0  0  0  0  0  0
   30.2037   -9.5829   36.6660 H   0  0  0  0  0  0  0  0  0  0  0  0
   35.8629  -14.8389   35.7462 C   0  0  0  0  0  0  0  0  0  0  0  0
   37.3130  -13.5465   37.3239 C   0  0  0  0  0  0  0  0  0  0  0  0
   36.9528  -14.9261   36.7620 C   0  0  0  0  0  0  0  0  0  0  0  0
   36.5132  -15.8304   37.9280 C   0  0  0  0  0  0  0  0  0  0  0  0
 35 36  1  0  0  0
 36 37  1  0  0  0
 36 34  1  0  0  0
 34  1  1  0  0  0
  1  2  1  0  0  0
  2  3  1  0  0  0
  3  4  2  0  0  0
  3  6  1  0  0  0
  6  7  1  0  0  0
  6  9  1  0  0  0
  9 10  1  0  0  0
  9 13  1  0  0  0
 13 14  1  0  0  0
 14 15  2  0  0  0
 15 16  1  0  0  0
 16 17  2  0  0  0
 17 18  1  0  0  0
 18 19  2  0  0  0
  1 20  1  0  0  0
 20 21  2  0  0  0
 20 22  1  0  0  0
 22 23  1  0  0  0
 23 24  1  0  0  0
 24 25  1  0  0  0
 25 26  2  0  0  0
 26 27  1  0  0  0
 26 28  1  0  0  0
 28 29  2  0  0  0
 28 30  1  0  0  0
 30 31  1  0  0  0
 31 32  2  0  0  0
 19 14  1  0  0  0
 31 24  1  0  0  0
  2  5  1  0  0  0
  7  8  1  0  0  0
 10 11  1  0  0  0
 10 12  1  0  0  0
 30 33  1  0  0  0
M  END
> <minimizedAffinity>
-8.21158

> <CNNscore>
0.3701353669

> <CNNaffinity>
6.0503158569

> <CNN_VS>
2.2394359112

> <CNNaffinity_variance>
0.1342574358

$$$$
[H]Cl.[H]O[C@]([H])(C(=O)N([H])[C@]([H])(C(=O)OC([H])([H])n1c([H])c(F)c(=O)n([H])c1=O)C([H])([H])C([H])(C([H])([H])[H])C([H])([H])[H])[C@]([H])(N([H])[H])C([H])([H])c1c([H])c([H])c([H])c([H])c1[H]


 37 38  0  0  0  0  0  0  0  0999 V2000
   36.1576  -18.0491   35.7285 C   0  0  0  0  0  0  0  0  0  0  0  0
   37.1489  -18.5287   34.7573 N   0  0  0  0  0  0  0  0  0  0  0  0
   38.3084  -19.2411   35.1689 C   0  0  0  0  0  0  0  0  0  0  0  0
   38.4630  -19.4500   36.3931 O   0  0  0  0  0  0  0  0  0  0  0  0
   37.0318  -18.3607   33.7343 H   0  0  0  0  0  0  0  0  0  0  0  0
   39.3218  -19.7348   34.2038 C   0  0  0  0  0  0  0  0  0  0  0  0
   38.7908  -19.6924   32.9220 O   0  0  0  0  0  0  0  0  0  0  0  0
   38.9300  -18.7954   32.5377 H   0  0  0  0  0  0  0  0  0  0  0  0
   40.5852  -18.8858   34.2263 C   0  0  0  0  0  0  0  0  0  0  0  0
   40.9399  -18.4148   32.9249 N   0  0  0  0  0  0  0  0  0  0  0  0
   41.2809  -17.4353   32.9022 H   0  0  0  0  0  0  0  0  0  0  0  0
   41.4695  -19.0616   32.3351 H   0  0  0  0  0  0  0  0  0  0  0  0
   41.6737  -19.7380   34.8196 C   0  0  0  0  0  0  0  0  0  0  0  0
   42.2099  -19.2084   36.0902 C   0  0  0  0  0  0  0  0  0  0  0  0
   43.1055  -18.1532   36.1444 C   0  0  0  0  0  0  0  0  0  0  0  0
   43.6056  -17.6593   37.3368 C   0  0  0  0  0  0  0  0  0  0  0  0
   43.2118  -18.2218   38.5151 C   0  0  0  0  0  0  0  0  0  0  0  0
   42.3261  -19.2694   38.5107 C   0  0  0  0  0  0  0  0  0  0  0  0
   41.8377  -19.7501   37.3240 C   0  0  0  0  0  0  0  0  0  0  0  0
   35.0118  -18.9908   35.7676 C   0  0  0  0  0  0  0  0  0  0  0  0
   34.5760  -19.3132   36.9285 O   0  0  0  0  0  0  0  0  0  0  0  0
   34.3660  -19.5525   34.7217 O   0  0  0  0  0  0  0  0  0  0  0  0
   33.0694  -19.4711   34.2765 C   0  0  0  0  0  0  0  0  0  0  0  0
   32.1586  -20.4960   34.6716 N   0  0  0  0  0  0  0  0  0  0  0  0
   32.2662  -21.8083   34.4177 C   0  0  0  0  0  0  0  0  0  0  0  0
   31.3010  -22.7316   34.8390 C   0  0  0  0  0  0  0  0  0  0  0  0
   31.4323  -24.0463   34.5716 F   0  0  0  0  0  0  0  0  0  0  0  0
   30.2054  -22.2969   35.5336 C   0  0  0  0  0  0  0  0  0  0  0  0
   29.2864  -23.0332   35.9556 O   0  0  0  0  0  0  0  0  0  0  0  0
   30.1200  -20.9660   35.7771 N   0  0  0  0  0  0  0  0  0  0  0  0
   31.0548  -20.1144   35.3630 C   0  0  0  0  0  0  0  0  0  0  0  0
   30.8773  -18.8794   35.6454 O   0  0  0  0  0  0  0  0  0  0  0  0
   29.2823  -20.6066   36.3119 H   0  0  0  0  0  0  0  0  0  0  0  0
   35.8100  -16.6273   35.4710 C   0  0  0  0  0  0  0  0  0  0  0  0
   36.7473  -15.6548   37.5777 C   0  0  0  0  0  0  0  0  0  0  0  0
   35.4990  -15.8595   36.7124 C   0  0  0  0  0  0  0  0  0  0  0  0
   34.9250  -14.4786   36.3462 C   0  0  0  0  0  0  0  0  0  0  0  0
 35 36  1  0  0  0
 36 37  1  0  0  0
 36 34  1  0  0  0
 34  1  1  0  0  0
  1  2  1  0  0  0
  2  3  1  0  0  0
  3  4  2  0  0  0
  3  6  1  0  0  0
  6  7  1  0  0  0
  6  9  1  0  0  0
  9 10  1  0  0  0
  9 13  1  0  0  0
 13 14  1  0  0  0
 14 15  2  0  0  0
 15 16  1  0  0  0
 16 17  2  0  0  0
 17 18  1  0  0  0
 18 19  2  0  0  0
  1 20  1  0  0  0
 20 21  2  0  0  0
 20 22  1  0  0  0
 22 23  1  0  0  0
 23 24  1  0  0  0
 24 25  1  0  0  0
 25 26  2  0  0  0
 26 27  1  0  0  0
 26 28  1  0  0  0
 28 29  2  0  0  0
 28 30  1  0  0  0
 30 31  1  0  0  0
 31 32  2  0  0  0
 19 14  1  0  0  0
 31 24  1  0  0  0
  2  5  1  0  0  0
  7  8  1  0  0  0
 10 11  1  0  0  0
 10 12  1  0  0  0
 30 33  1  0  0  0
M  END
> <minimizedAffinity>
-6.45149

> <CNNscore>
0.2287708521

> <CNNaffinity>
5.2118029594

> <CNN_VS>
1.1923085451

> <CNNaffinity_variance>
0.3771004081

$$$$
[H]Cl.[H]O[C@]([H])(C(=O)N([H])[C@]([H])(C(=O)OC([H])([H])n1c([H])c(F)c(=O)n([H])c1=O)C([H])([H])C([H])(C([H])([H])[H])C([H])([H])[H])[C@]([H])(N([H])[H])C([H])([H])c1c([H])c([H])c([H])c([H])c1[H]


 37 38  0  0  0  0  0  0  0  0999 V2000
   35.2368  -14.6931   36.9843 C   0  0  0  0  0  0  0  0  0  0  0  0
   34.1104  -14.0541   37.6763 N   0  0  0  0  0  0  0  0  0  0  0  0
   33.8452  -12.6642   37.5383 C   0  0  0  0  0  0  0  0  0  0  0  0
   34.6053  -11.9935   36.8044 O   0  0  0  0  0  0  0  0  0  0  0  0
   33.4699  -14.6021   38.2911 H   0  0  0  0  0  0  0  0  0  0  0  0
   32.7122  -11.9992   38.2282 C   0  0  0  0  0  0  0  0  0  0  0  0
   33.0003  -10.6503   38.3839 O   0  0  0  0  0  0  0  0  0  0  0  0
   32.7321  -10.1606   37.5716 H   0  0  0  0  0  0  0  0  0  0  0  0
   31.4171  -12.1233   37.4378 C   0  0  0  0  0  0  0  0  0  0  0  0
   31.6227  -12.7281   36.1599 N   0  0  0  0  0  0  0  0  0  0  0  0
   30.8834  -13.4000   35.8801 H   0  0  0  0  0  0  0  0  0  0  0  0
   31.9395  -12.1097   35.4089 H   0  0  0  0  0  0  0  0  0  0  0  0
   30.8511  -10.7357   37.3062 C   0  0  0  0  0  0  0  0  0  0  0  0
   29.5458  -10.5659   37.9768 C   0  0  0  0  0  0  0  0  0  0  0  0
   28.4931  -11.4491   37.8034 C   0  0  0  0  0  0  0  0  0  0  0  0
   27.2714  -11.2870   38.4337 C   0  0  0  0  0  0  0  0  0  0  0  0
   27.0787  -10.2209   39.2621 C   0  0  0  0  0  0  0  0  0  0  0  0
   28.0930   -9.3196   39.4642 C   0  0  0  0  0  0  0  0  0  0  0  0
   29.2982   -9.4904   38.8347 C   0  0  0  0  0  0  0  0  0  0  0  0
   34.8119  -16.0197   36.4739 C   0  0  0  0  0  0  0  0  0  0  0  0
   35.6086  -16.9988   36.6932 O   0  0  0  0  0  0  0  0  0  0  0  0
   33.6789  -16.3244   35.8031 O   0  0  0  0  0  0  0  0  0  0  0  0
   33.4495  -16.8660   34.5621 C   0  0  0  0  0  0  0  0  0  0  0  0
   33.0004  -18.2187   34.4929 N   0  0  0  0  0  0  0  0  0  0  0  0
   31.7807  -18.6776   34.8090 C   0  0  0  0  0  0  0  0  0  0  0  0
   31.4482  -20.0353   34.7209 C   0  0  0  0  0  0  0  0  0  0  0  0
   30.2145  -20.4718   35.0441 F   0  0  0  0  0  0  0  0  0  0  0  0
   32.3874  -20.9368   34.3002 C   0  0  0  0  0  0  0  0  0  0  0  0
   32.1976  -22.1678   34.1853 O   0  0  0  0  0  0  0  0  0  0  0  0
   33.6124  -20.4477   33.9871 N   0  0  0  0  0  0  0  0  0  0  0  0
   33.8966  -19.1512   34.0815 C   0  0  0  0  0  0  0  0  0  0  0  0
   35.0828  -18.7949   33.7617 O   0  0  0  0  0  0  0  0  0  0  0  0
   34.3545  -21.1252   33.6599 H   0  0  0  0  0  0  0  0  0  0  0  0
   36.4513  -14.6951   37.8409 C   0  0  0  0  0  0  0  0  0  0  0  0
   37.1985  -12.9877   36.1710 C   0  0  0  0  0  0  0  0  0  0  0  0
   37.6285  -14.0380   37.2010 C   0  0  0  0  0  0  0  0  0  0  0  0
   38.4921  -13.3480   38.2728 C   0  0  0  0  0  0  0  0  0  0  0  0
 35 36  1  0  0  0
 36 37  1  0  0  0
 36 34  1  0  0  0
 34  1  1  0  0  0
  1  2  1  0  0  0
  2  3  1  0  0  0
  3  4  2  0  0  0
  3  6  1  0  0  0
  6  7  1  0  0  0
  6  9  1  0  0  0
  9 10  1  0  0  0
  9 13  1  0  0  0
 13 14  1  0  0  0
 14 15  2  0  0  0
 15 16  1  0  0  0
 16 17  2  0  0  0
 17 18  1  0  0  0
 18 19  2  0  0  0
  1 20  1  0  0  0
 20 21  2  0  0  0
 20 22  1  0  0  0
 22 23  1  0  0  0
 23 24  1  0  0  0
 24 25  1  0  0  0
 25 26  2  0  0  0
 26 27  1  0  0  0
 26 28  1  0  0  0
 28 29  2  0  0  0
 28 30  1  0  0  0
 30 31  1  0  0  0
 31 32  2  0  0  0
 19 14  1  0  0  0
 31 24  1  0  0  0
  2  5  1  0  0  0
  7  8  1  0  0  0
 10 11  1  0  0  0
 10 12  1  0  0  0
 30 33  1  0  0  0
M  END
> <minimizedAffinity>
-8.12418

> <CNNscore>
0.2138181031

> <CNNaffinity>
5.6844739914

> <CNN_VS>
1.2154434919

> <CNNaffinity_variance>
0.0515923873

$$$$
[H]Cl.[H]O[C@]([H])(C(=O)N([H])[C@]([H])(C(=O)OC([H])([H])n1c([H])c(F)c(=O)n([H])c1=O)C([H])([H])C([H])(C([H])([H])[H])C([H])([H])[H])[C@]([H])(N([H])[H])C([H])([H])c1c([H])c([H])c([H])c([H])c1[H]


 37 38  0  0  0  0  0  0  0  0999 V2000
   35.6240  -17.7876   35.6145 C   0  0  0  0  0  0  0  0  0  0  0  0
   36.5044  -17.9886   34.4568 N   0  0  0  0  0  0  0  0  0  0  0  0
   37.7314  -18.6977   34.5704 C   0  0  0  0  0  0  0  0  0  0  0  0
   38.0441  -19.1499   35.6947 O   0  0  0  0  0  0  0  0  0  0  0  0
   36.2554  -17.6164   33.5145 H   0  0  0  0  0  0  0  0  0  0  0  0
   38.6351  -18.9123   33.4131 C   0  0  0  0  0  0  0  0  0  0  0  0
   38.4905  -17.8602   32.5192 O   0  0  0  0  0  0  0  0  0  0  0  0
   39.0834  -17.1189   32.7850 H   0  0  0  0  0  0  0  0  0  0  0  0
   40.0948  -18.9798   33.8400 C   0  0  0  0  0  0  0  0  0  0  0  0
   40.8770  -17.9413   33.2476 N   0  0  0  0  0  0  0  0  0  0  0  0
   41.5748  -17.5139   33.8853 H   0  0  0  0  0  0  0  0  0  0  0  0
   41.2194  -18.1137   32.2991 H   0  0  0  0  0  0  0  0  0  0  0  0
   40.6013  -20.3417   33.4504 C   0  0  0  0  0  0  0  0  0  0  0  0
   40.3929  -21.3679   34.4925 C   0  0  0  0  0  0  0  0  0  0  0  0
   41.0916  -21.3752   35.6884 C   0  0  0  0  0  0  0  0  0  0  0  0
   40.8934  -22.3381   36.6627 C   0  0  0  0  0  0  0  0  0  0  0  0
   39.9776  -23.3269   36.4540 C   0  0  0  0  0  0  0  0  0  0  0  0
   39.2617  -23.3604   35.2843 C   0  0  0  0  0  0  0  0  0  0  0  0
   39.4665  -22.4016   34.3268 C   0  0  0  0  0  0  0  0  0  0  0  0
   34.5717  -18.8335   35.6196 C   0  0  0  0  0  0  0  0  0  0  0  0
   34.2289  -19.2942   36.7650 O   0  0  0  0  0  0  0  0  0  0  0  0
   33.9248  -19.3620   34.5573 O   0  0  0  0  0  0  0  0  0  0  0  0
   32.5982  -19.4096   34.2053 C   0  0  0  0  0  0  0  0  0  0  0  0
   31.8309  -20.5349   34.6311 N   0  0  0  0  0  0  0  0  0  0  0  0
   32.1318  -21.8286   34.4474 C   0  0  0  0  0  0  0  0  0  0  0  0
   31.2954  -22.8599   34.8930 C   0  0  0  0  0  0  0  0  0  0  0  0
   31.6205  -24.1533   34.6965 F   0  0  0  0  0  0  0  0  0  0  0  0
   30.1285  -22.5546   35.5386 C   0  0  0  0  0  0  0  0  0  0  0  0
   29.3112  -23.3943   35.9763 O   0  0  0  0  0  0  0  0  0  0  0  0
   29.8472  -21.2397   35.7114 N   0  0  0  0  0  0  0  0  0  0  0  0
   30.6635  -20.2833   35.2760 C   0  0  0  0  0  0  0  0  0  0  0  0
   30.3036  -19.0746   35.4905 O   0  0  0  0  0  0  0  0  0  0  0  0
   28.9511  -20.9793   36.2073 H   0  0  0  0  0  0  0  0  0  0  0  0
   35.1341  -16.3856   35.6693 C   0  0  0  0  0  0  0  0  0  0  0  0
   35.6631  -13.9659   36.0264 C   0  0  0  0  0  0  0  0  0  0  0  0
   36.1865  -15.4057   36.0685 C   0  0  0  0  0  0  0  0  0  0  0  0
   36.6716  -15.7089   37.4980 C   0  0  0  0  0  0  0  0  0  0  0  0
 35 36  1  0  0  0
 36 37  1  0  0  0
 36 34  1  0  0  0
 34  1  1  0  0  0
  1  2  1  0  0  0
  2  3  1  0  0  0
  3  4  2  0  0  0
  3  6  1  0  0  0
  6  7  1  0  0  0
  6  9  1  0  0  0
  9 10  1  0  0  0
  9 13  1  0  0  0
 13 14  1  0  0  0
 14 15  2  0  0  0
 15 16  1  0  0  0
 16 17  2  0  0  0
 17 18  1  0  0  0
 18 19  2  0  0  0
  1 20  1  0  0  0
 20 21  2  0  0  0
 20 22  1  0  0  0
 22 23  1  0  0  0
 23 24  1  0  0  0
 24 25  1  0  0  0
 25 26  2  0  0  0
 26 27  1  0  0  0
 26 28  1  0  0  0
 28 29  2  0  0  0
 28 30  1  0  0  0
 30 31  1  0  0  0
 31 32  2  0  0  0
 19 14  1  0  0  0
 31 24  1  0  0  0
  2  5  1  0  0  0
  7  8  1  0  0  0
 10 11  1  0  0  0
 10 12  1  0  0  0
 30 33  1  0  0  0
M  END
> <minimizedAffinity>
-6.31267

> <CNNscore>
0.2129611075

> <CNNaffinity>
5.2866353989

> <CNN_VS>
1.1258476973

> <CNNaffinity_variance>
0.4861038625

$$$$
[H]Cl.[H]O[C@]([H])(C(=O)N([H])[C@]([H])(C(=O)OC([H])([H])n1c([H])c(F)c(=O)n([H])c1=O)C([H])([H])C([H])(C([H])([H])[H])C([H])([H])[H])[C@]([H])(N([H])[H])C([H])([H])c1c([H])c([H])c([H])c([H])c1[H]


 37 38  0  0  0  0  0  0  0  0999 V2000
   36.2177  -18.9915   35.3548 C   0  0  0  0  0  0  0  0  0  0  0  0
   34.7514  -18.9236   35.3197 N   0  0  0  0  0  0  0  0  0  0  0  0
   33.9478  -19.8013   36.0975 C   0  0  0  0  0  0  0  0  0  0  0  0
   34.5295  -20.6418   36.8197 O   0  0  0  0  0  0  0  0  0  0  0  0
   34.2546  -18.2278   34.7217 H   0  0  0  0  0  0  0  0  0  0  0  0
   32.4649  -19.7488   36.0769 C   0  0  0  0  0  0  0  0  0  0  0  0
   32.0569  -18.4362   35.8836 O   0  0  0  0  0  0  0  0  0  0  0  0
   32.0307  -18.2386   34.9182 H   0  0  0  0  0  0  0  0  0  0  0  0
   31.8842  -20.5999   34.9564 C   0  0  0  0  0  0  0  0  0  0  0  0
   32.5826  -20.4157   33.7237 N   0  0  0  0  0  0  0  0  0  0  0  0
   32.7328  -21.2877   33.1821 H   0  0  0  0  0  0  0  0  0  0  0  0
   32.3054  -19.6087   33.1593 H   0  0  0  0  0  0  0  0  0  0  0  0
   30.4332  -20.2237   34.8292 C   0  0  0  0  0  0  0  0  0  0  0  0
   29.5326  -21.0669   35.6419 C   0  0  0  0  0  0  0  0  0  0  0  0
   28.6989  -20.5487   36.6190 C   0  0  0  0  0  0  0  0  0  0  0  0
   27.8561  -21.3417   37.3783 C   0  0  0  0  0  0  0  0  0  0  0  0
   27.8324  -22.6893   37.1698 C   0  0  0  0  0  0  0  0  0  0  0  0
   28.6411  -23.2477   36.2126 C   0  0  0  0  0  0  0  0  0  0  0  0
   29.4715  -22.4525   35.4669 C   0  0  0  0  0  0  0  0  0  0  0  0
   36.7248  -18.1156   36.4396 C   0  0  0  0  0  0  0  0  0  0  0  0
   37.5816  -18.6333   37.2392 O   0  0  0  0  0  0  0  0  0  0  0  0
   36.3930  -16.8293   36.6882 O   0  0  0  0  0  0  0  0  0  0  0  0
   36.2778  -15.7253   35.8795 C   0  0  0  0  0  0  0  0  0  0  0  0
   35.2614  -14.7719   36.1863 N   0  0  0  0  0  0  0  0  0  0  0  0
   35.4387  -13.5439   36.6948 C   0  0  0  0  0  0  0  0  0  0  0  0
   34.3644  -12.6904   36.9762 C   0  0  0  0  0  0  0  0  0  0  0  0
   34.5688  -11.4597   37.4869 F   0  0  0  0  0  0  0  0  0  0  0  0
   33.0850  -13.1080   36.7303 C   0  0  0  0  0  0  0  0  0  0  0  0
   32.0564  -12.4290   36.9438 O   0  0  0  0  0  0  0  0  0  0  0  0
   32.9327  -14.3534   36.2167 N   0  0  0  0  0  0  0  0  0  0  0  0
   33.9748  -15.1401   35.9603 C   0  0  0  0  0  0  0  0  0  0  0  0
   33.7204  -16.2966   35.4766 O   0  0  0  0  0  0  0  0  0  0  0  0
   31.9535  -14.6981   36.0187 H   0  0  0  0  0  0  0  0  0  0  0  0
   36.7913  -18.7398   34.0071 C   0  0  0  0  0  0  0  0  0  0  0  0
   39.2859  -18.7128   33.8120 C   0  0  0  0  0  0  0  0  0  0  0  0
   38.0083  -19.5543   33.7199 C   0  0  0  0  0  0  0  0  0  0  0  0
   38.1130  -20.7153   34.7257 C   0  0  0  0  0  0  0  0  0  0  0  0
 35 36  1  0  0  0
 36 37  1  0  0  0
 36 34  1  0  0  0
 34  1  1  0  0  0
  1  2  1  0  0  0
  2  3  1  0  0  0
  3  4  2  0  0  0
  3  6  1  0  0  0
  6  7  1  0  0  0
  6  9  1  0  0  0
  9 10  1  0  0  0
  9 13  1  0  0  0
 13 14  1  0  0  0
 14 15  2  0  0  0
 15 16  1  0  0  0
 16 17  2  0  0  0
 17 18  1  0  0  0
 18 19  2  0  0  0
  1 20  1  0  0  0
 20 21  2  0  0  0
 20 22  1  0  0  0
 22 23  1  0  0  0
 23 24  1  0  0  0
 24 25  1  0  0  0
 25 26  2  0  0  0
 26 27  1  0  0  0
 26 28  1  0  0  0
 28 29  2  0  0  0
 28 30  1  0  0  0
 30 31  1  0  0  0
 31 32  2  0  0  0
 19 14  1  0  0  0
 31 24  1  0  0  0
  2  5  1  0  0  0
  7  8  1  0  0  0
 10 11  1  0  0  0
 10 12  1  0  0  0
 30 33  1  0  0  0
M  END
> <minimizedAffinity>
-6.90252

> <CNNscore>
0.1920063496

> <CNNaffinity>
5.5700087547

> <CNN_VS>
1.0694770813

> <CNNaffinity_variance>
0.0933527648

$$$$
[H]Cl.[H]O[C@]([H])(C(=O)N([H])[C@]([H])(C(=O)OC([H])([H])n1c([H])c(F)c(=O)n([H])c1=O)C([H])([H])C([H])(C([H])([H])[H])C([H])([H])[H])[C@]([H])(N([H])[H])C([H])([H])c1c([H])c([H])c([H])c([H])c1[H]


 37 38  0  0  0  0  0  0  0  0999 V2000
   36.6906  -16.8392   36.3837 C   0  0  0  0  0  0  0  0  0  0  0  0
   37.3121  -17.5775   35.2771 N   0  0  0  0  0  0  0  0  0  0  0  0
   38.2086  -18.6553   35.5135 C   0  0  0  0  0  0  0  0  0  0  0  0
   38.4565  -18.9605   36.7017 O   0  0  0  0  0  0  0  0  0  0  0  0
   37.1141  -17.3327   34.2825 H   0  0  0  0  0  0  0  0  0  0  0  0
   38.8469  -19.4146   34.4098 C   0  0  0  0  0  0  0  0  0  0  0  0
   38.0321  -19.3604   33.2872 O   0  0  0  0  0  0  0  0  0  0  0  0
   38.2305  -18.5413   32.7758 H   0  0  0  0  0  0  0  0  0  0  0  0
   40.2076  -18.8404   34.0410 C   0  0  0  0  0  0  0  0  0  0  0  0
   40.5350  -19.0709   32.6696 N   0  0  0  0  0  0  0  0  0  0  0  0
   40.9969  -18.2700   32.1990 H   0  0  0  0  0  0  0  0  0  0  0  0
   40.9378  -19.9841   32.4447 H   0  0  0  0  0  0  0  0  0  0  0  0
   41.2136  -19.4750   34.9620 C   0  0  0  0  0  0  0  0  0  0  0  0
   42.0993  -18.4990   35.6294 C   0  0  0  0  0  0  0  0  0  0  0  0
   42.4626  -18.6046   36.9618 C   0  0  0  0  0  0  0  0  0  0  0  0
   43.2930  -17.6883   37.5838 C   0  0  0  0  0  0  0  0  0  0  0  0
   43.7824  -16.6331   36.8717 C   0  0  0  0  0  0  0  0  0  0  0  0
   43.4495  -16.4874   35.5489 C   0  0  0  0  0  0  0  0  0  0  0  0
   42.6265  -17.4008   34.9437 C   0  0  0  0  0  0  0  0  0  0  0  0
   35.3640  -17.4308   36.6859 C   0  0  0  0  0  0  0  0  0  0  0  0
   35.3462  -18.3932   37.5314 O   0  0  0  0  0  0  0  0  0  0  0  0
   34.1637  -17.0752   36.1765 O   0  0  0  0  0  0  0  0  0  0  0  0
   33.5536  -17.3246   34.9718 C   0  0  0  0  0  0  0  0  0  0  0  0
   33.0178  -18.6281   34.7480 N   0  0  0  0  0  0  0  0  0  0  0  0
   31.8159  -19.0801   35.1343 C   0  0  0  0  0  0  0  0  0  0  0  0
   31.3934  -20.3905   34.8771 C   0  0  0  0  0  0  0  0  0  0  0  0
   30.1797  -20.8209   35.2755 F   0  0  0  0  0  0  0  0  0  0  0  0
   32.2224  -21.2511   34.2109 C   0  0  0  0  0  0  0  0  0  0  0  0
   31.9462  -22.4383   33.9300 O   0  0  0  0  0  0  0  0  0  0  0  0
   33.4318  -20.7701   33.8317 N   0  0  0  0  0  0  0  0  0  0  0  0
   33.8034  -19.5190   34.0914 C   0  0  0  0  0  0  0  0  0  0  0  0
   34.9655  -19.1663   33.6896 O   0  0  0  0  0  0  0  0  0  0  0  0
   34.0896  -21.4166   33.3158 H   0  0  0  0  0  0  0  0  0  0  0  0
   36.6938  -15.3780   36.1124 C   0  0  0  0  0  0  0  0  0  0  0  0
   37.8466  -13.7951   37.6705 C   0  0  0  0  0  0  0  0  0  0  0  0
   36.5516  -14.5468   37.3436 C   0  0  0  0  0  0  0  0  0  0  0  0
   35.4221  -13.5176   37.1551 C   0  0  0  0  0  0  0  0  0  0  0  0
 35 36  1  0  0  0
 36 37  1  0  0  0
 36 34  1  0  0  0
 34  1  1  0  0  0
  1  2  1  0  0  0
  2  3  1  0  0  0
  3  4  2  0  0  0
  3  6  1  0  0  0
  6  7  1  0  0  0
  6  9  1  0  0  0
  9 10  1  0  0  0
  9 13  1  0  0  0
 13 14  1  0  0  0
 14 15  2  0  0  0
 15 16  1  0  0  0
 16 17  2  0  0  0
 17 18  1  0  0  0
 18 19  2  0  0  0
  1 20  1  0  0  0
 20 21  2  0  0  0
 20 22  1  0  0  0
 22 23  1  0  0  0
 23 24  1  0  0  0
 24 25  1  0  0  0
 25 26  2  0  0  0
 26 27  1  0  0  0
 26 28  1  0  0  0
 28 29  2  0  0  0
 28 30  1  0  0  0
 30 31  1  0  0  0
 31 32  2  0  0  0
 19 14  1  0  0  0
 31 24  1  0  0  0
  2  5  1  0  0  0
  7  8  1  0  0  0
 10 11  1  0  0  0
 10 12  1  0  0  0
 30 33  1  0  0  0
M  END
> <minimizedAffinity>
-7.37495

> <CNNscore>
0.1834205091

> <CNNaffinity>
5.3977355957

> <CNN_VS>
0.9900553823

> <CNNaffinity_variance>
0.3410169482

$$$$
[H]Cl.[H]O[C@]([H])(C(=O)N([H])[C@]([H])(C(=O)OC([H])([H])n1c([H])c(F)c(=O)n([H])c1=O)C([H])([H])C([H])(C([H])([H])[H])C([H])([H])[H])[C@]([H])(N([H])[H])C([H])([H])c1c([H])c([H])c([H])c([H])c1[H]


 37 38  0  0  0  0  0  0  0  0999 V2000
   36.8582  -17.8490   36.4312 C   0  0  0  0  0  0  0  0  0  0  0  0
   38.3039  -18.0760   36.5512 N   0  0  0  0  0  0  0  0  0  0  0  0
   38.8292  -19.3460   36.9149 C   0  0  0  0  0  0  0  0  0  0  0  0
   38.0184  -20.2742   37.1325 O   0  0  0  0  0  0  0  0  0  0  0  0
   38.9901  -17.3105   36.3729 H   0  0  0  0  0  0  0  0  0  0  0  0
   40.2864  -19.5965   37.0412 C   0  0  0  0  0  0  0  0  0  0  0  0
   40.5235  -20.9621   36.9650 O   0  0  0  0  0  0  0  0  0  0  0  0
   40.6069  -21.2293   36.0198 H   0  0  0  0  0  0  0  0  0  0  0  0
   41.0762  -18.9117   35.9346 C   0  0  0  0  0  0  0  0  0  0  0  0
   41.6984  -19.8517   35.0569 N   0  0  0  0  0  0  0  0  0  0  0  0
   41.6633  -19.5894   34.0539 H   0  0  0  0  0  0  0  0  0  0  0  0
   42.5958  -20.2360   35.3633 H   0  0  0  0  0  0  0  0  0  0  0  0
   42.0921  -18.0281   36.6057 C   0  0  0  0  0  0  0  0  0  0  0  0
   42.8791  -18.7207   37.6466 C   0  0  0  0  0  0  0  0  0  0  0  0
   43.8053  -19.7081   37.3538 C   0  0  0  0  0  0  0  0  0  0  0  0
   44.5413  -20.3546   38.3316 C   0  0  0  0  0  0  0  0  0  0  0  0
   44.3604  -20.0190   39.6411 C   0  0  0  0  0  0  0  0  0  0  0  0
   43.4536  -19.0466   39.9790 C   0  0  0  0  0  0  0  0  0  0  0  0
   42.7306  -18.4133   39.0021 C   0  0  0  0  0  0  0  0  0  0  0  0
   36.4782  -17.8467   34.9971 C   0  0  0  0  0  0  0  0  0  0  0  0
   37.4157  -17.6072   34.1574 O   0  0  0  0  0  0  0  0  0  0  0  0
   35.2564  -18.0698   34.4642 O   0  0  0  0  0  0  0  0  0  0  0  0
   34.6402  -19.2025   33.9916 C   0  0  0  0  0  0  0  0  0  0  0  0
   33.3731  -19.5572   34.5438 N   0  0  0  0  0  0  0  0  0  0  0  0
   32.1660  -19.2658   34.0377 C   0  0  0  0  0  0  0  0  0  0  0  0
   30.9781  -19.6492   34.6730 C   0  0  0  0  0  0  0  0  0  0  0  0
   29.7764  -19.3445   34.1436 F   0  0  0  0  0  0  0  0  0  0  0  0
   31.0332  -20.3443   35.8501 C   0  0  0  0  0  0  0  0  0  0  0  0
   30.0374  -20.7344   36.4988 O   0  0  0  0  0  0  0  0  0  0  0  0
   32.2652  -20.6259   36.3408 N   0  0  0  0  0  0  0  0  0  0  0  0
   33.3753  -20.2474   35.7124 C   0  0  0  0  0  0  0  0  0  0  0  0
   34.4865  -20.5642   36.2613 O   0  0  0  0  0  0  0  0  0  0  0  0
   32.3329  -21.1619   37.2491 H   0  0  0  0  0  0  0  0  0  0  0  0
   36.4451  -16.6496   37.2054 C   0  0  0  0  0  0  0  0  0  0  0  0
   34.9240  -14.9347   36.2017 C   0  0  0  0  0  0  0  0  0  0  0  0
   36.3706  -15.4086   36.3800 C   0  0  0  0  0  0  0  0  0  0  0  0
   37.1760  -14.2815   37.0518 C   0  0  0  0  0  0  0  0  0  0  0  0
 35 36  1  0  0  0
 36 37  1  0  0  0
 36 34  1  0  0  0
 34  1  1  0  0  0
  1  2  1  0  0  0
  2  3  1  0  0  0
  3  4  2  0  0  0
  3  6  1  0  0  0
  6  7  1  0  0  0
  6  9  1  0  0  0
  9 10  1  0  0  0
  9 13  1  0  0  0
 13 14  1  0  0  0
 14 15  2  0  0  0
 15 16  1  0  0  0
 16 17  2  0  0  0
 17 18  1  0  0  0
 18 19  2  0  0  0
  1 20  1  0  0  0
 20 21  2  0  0  0
 20 22  1  0  0  0
 22 23  1  0  0  0
 23 24  1  0  0  0
 24 25  1  0  0  0
 25 26  2  0  0  0
 26 27  1  0  0  0
 26 28  1  0  0  0
 28 29  2  0  0  0
 28 30  1  0  0  0
 30 31  1  0  0  0
 31 32  2  0  0  0
 19 14  1  0  0  0
 31 24  1  0  0  0
  2  5  1  0  0  0
  7  8  1  0  0  0
 10 11  1  0  0  0
 10 12  1  0  0  0
 30 33  1  0  0  0
M  END
> <minimizedAffinity>
-6.30320

> <CNNscore>
0.1792505085

> <CNNaffinity>
4.7970380783

> <CNN_VS>
0.8598715067

> <CNNaffinity_variance>
0.6374872327

$$$$
[H]Cl.[H]O[C@]([H])(C(=O)N([H])[C@]([H])(C(=O)OC([H])([H])n1c([H])c(F)c(=O)n([H])c1=O)C([H])([H])C([H])(C([H])([H])[H])C([H])([H])[H])[C@]([H])(N([H])[H])C([H])([H])c1c([H])c([H])c([H])c([H])c1[H]


 37 38  0  0  0  0  0  0  0  0999 V2000
   36.1700  -16.8461   36.0120 C   0  0  0  0  0  0  0  0  0  0  0  0
   37.4978  -17.4433   35.8217 N   0  0  0  0  0  0  0  0  0  0  0  0
   37.8557  -18.6723   36.4403 C   0  0  0  0  0  0  0  0  0  0  0  0
   37.0003  -19.2367   37.1587 O   0  0  0  0  0  0  0  0  0  0  0  0
   38.2197  -16.9826   35.2257 H   0  0  0  0  0  0  0  0  0  0  0  0
   39.1915  -19.2929   36.2605 C   0  0  0  0  0  0  0  0  0  0  0  0
   39.5379  -19.9753   37.4187 O   0  0  0  0  0  0  0  0  0  0  0  0
   39.1624  -20.8862   37.3887 H   0  0  0  0  0  0  0  0  0  0  0  0
   39.2054  -20.2801   35.1018 C   0  0  0  0  0  0  0  0  0  0  0  0
   38.0369  -20.1700   34.2872 N   0  0  0  0  0  0  0  0  0  0  0  0
   38.2158  -20.2500   33.2685 H   0  0  0  0  0  0  0  0  0  0  0  0
   37.2062  -20.6711   34.6122 H   0  0  0  0  0  0  0  0  0  0  0  0
   39.3325  -21.6545   35.7004 C   0  0  0  0  0  0  0  0  0  0  0  0
   39.7089  -22.6921   34.7185 C   0  0  0  0  0  0  0  0  0  0  0  0
   38.8990  -23.7769   34.4261 C   0  0  0  0  0  0  0  0  0  0  0  0
   39.2548  -24.7471   33.5052 C   0  0  0  0  0  0  0  0  0  0  0  0
   40.4468  -24.6471   32.8501 C   0  0  0  0  0  0  0  0  0  0  0  0
   41.2820  -23.5896   33.1073 C   0  0  0  0  0  0  0  0  0  0  0  0
   40.9191  -22.6351   34.0212 C   0  0  0  0  0  0  0  0  0  0  0  0
   35.2134  -17.4600   35.0586 C   0  0  0  0  0  0  0  0  0  0  0  0
   35.7088  -17.9314   33.9751 O   0  0  0  0  0  0  0  0  0  0  0  0
   33.8746  -17.5856   35.1946 O   0  0  0  0  0  0  0  0  0  0  0  0
   32.8855  -17.9884   34.3313 C   0  0  0  0  0  0  0  0  0  0  0  0
   32.2481  -19.2409   34.5785 N   0  0  0  0  0  0  0  0  0  0  0  0
   31.1749  -19.4574   35.3526 C   0  0  0  0  0  0  0  0  0  0  0  0
   30.6370  -20.7368   35.5419 C   0  0  0  0  0  0  0  0  0  0  0  0
   29.5566  -20.9284   36.3250 F   0  0  0  0  0  0  0  0  0  0  0  0
   31.2140  -21.8124   34.9239 C   0  0  0  0  0  0  0  0  0  0  0  0
   30.8163  -22.9941   35.0238 O   0  0  0  0  0  0  0  0  0  0  0  0
   32.2977  -21.5670   34.1473 N   0  0  0  0  0  0  0  0  0  0  0  0
   32.7844  -20.3388   33.9878 C   0  0  0  0  0  0  0  0  0  0  0  0
   33.8105  -20.2174   33.2337 O   0  0  0  0  0  0  0  0  0  0  0  0
   32.7606  -22.3824   33.6598 H   0  0  0  0  0  0  0  0  0  0  0  0
   36.2474  -15.3624   35.9760 C   0  0  0  0  0  0  0  0  0  0  0  0
   37.5362  -14.2256   37.7950 C   0  0  0  0  0  0  0  0  0  0  0  0
   36.1678  -14.7323   37.3265 C   0  0  0  0  0  0  0  0  0  0  0  0
   35.1899  -13.5435   37.2949 C   0  0  0  0  0  0  0  0  0  0  0  0
 35 36  1  0  0  0
 36 37  1  0  0  0
 36 34  1  0  0  0
 34  1  1  0  0  0
  1  2  1  0  0  0
  2  3  1  0  0  0
  3  4  2  0  0  0
  3  6  1  0  0  0
  6  7  1  0  0  0
  6  9  1  0  0  0
  9 10  1  0  0  0
  9 13  1  0  0  0
 13 14  1  0  0  0
 14 15  2  0  0  0
 15 16  1  0  0  0
 16 17  2  0  0  0
 17 18  1  0  0  0
 18 19  2  0  0  0
  1 20  1  0  0  0
 20 21  2  0  0  0
 20 22  1  0  0  0
 22 23  1  0  0  0
 23 24  1  0  0  0
 24 25  1  0  0  0
 25 26  2  0  0  0
 26 27  1  0  0  0
 26 28  1  0  0  0
 28 29  2  0  0  0
 28 30  1  0  0  0
 30 31  1  0  0  0
 31 32  2  0  0  0
 19 14  1  0  0  0
 31 24  1  0  0  0
  2  5  1  0  0  0
  7  8  1  0  0  0
 10 11  1  0  0  0
 10 12  1  0  0  0
 30 33  1  0  0  0
M  END
> <minimizedAffinity>
-6.31895

> <CNNscore>
0.1755169332

> <CNNaffinity>
5.1851797104

> <CNN_VS>
0.9100868702

> <CNNaffinity_variance>
0.3484395742

$$$$
[H]Cl.[H]O[C@]([H])(C(=O)N([H])[C@]([H])(C(=O)OC([H])([H])n1c([H])c(F)c(=O)n([H])c1=O)C([H])([H])C([H])(C([H])([H])[H])C([H])([H])[H])[C@]([H])(N([H])[H])C([H])([H])c1c([H])c([H])c([H])c([H])c1[H]


 37 38  0  0  0  0  0  0  0  0999 V2000
   34.5004  -15.0030   36.3419 C   0  0  0  0  0  0  0  0  0  0  0  0
   33.8831  -15.8558   35.3184 N   0  0  0  0  0  0  0  0  0  0  0  0
   34.1180  -17.2574   35.2782 C   0  0  0  0  0  0  0  0  0  0  0  0
   34.8728  -17.7494   36.1469 O   0  0  0  0  0  0  0  0  0  0  0  0
   33.2524  -15.4579   34.5887 H   0  0  0  0  0  0  0  0  0  0  0  0
   33.5038  -18.1369   34.2529 C   0  0  0  0  0  0  0  0  0  0  0  0
   34.3069  -19.2540   34.0688 O   0  0  0  0  0  0  0  0  0  0  0  0
   34.0705  -19.9424   34.7335 H   0  0  0  0  0  0  0  0  0  0  0  0
   32.1174  -18.6082   34.6691 C   0  0  0  0  0  0  0  0  0  0  0  0
   31.7682  -18.1609   35.9802 N   0  0  0  0  0  0  0  0  0  0  0  0
   30.7827  -17.8521   36.0792 H   0  0  0  0  0  0  0  0  0  0  0  0
   32.1167  -18.7227   36.7610 H   0  0  0  0  0  0  0  0  0  0  0  0
   32.1223  -20.1101   34.5822 C   0  0  0  0  0  0  0  0  0  0  0  0
   31.1234  -20.7541   35.4596 C   0  0  0  0  0  0  0  0  0  0  0  0
   31.4702  -21.6349   36.4707 C   0  0  0  0  0  0  0  0  0  0  0  0
   30.5315  -22.2362   37.2912 C   0  0  0  0  0  0  0  0  0  0  0  0
   29.2077  -21.9621   37.1114 C   0  0  0  0  0  0  0  0  0  0  0  0
   28.8167  -21.0957   36.1222 C   0  0  0  0  0  0  0  0  0  0  0  0
   29.7551  -20.5064   35.3159 C   0  0  0  0  0  0  0  0  0  0  0  0
   33.5318  -13.9613   36.7637 C   0  0  0  0  0  0  0  0  0  0  0  0
   32.7973  -13.4570   35.8431 O   0  0  0  0  0  0  0  0  0  0  0  0
   33.3267  -13.4773   38.0088 O   0  0  0  0  0  0  0  0  0  0  0  0
   32.6376  -12.3876   38.4814 C   0  0  0  0  0  0  0  0  0  0  0  0
   31.2578  -12.5547   38.8049 N   0  0  0  0  0  0  0  0  0  0  0  0
   30.7514  -13.2695   39.8201 C   0  0  0  0  0  0  0  0  0  0  0  0
   29.3725  -13.3823   40.0386 C   0  0  0  0  0  0  0  0  0  0  0  0
   28.8880  -14.1066   41.0670 F   0  0  0  0  0  0  0  0  0  0  0  0
   28.4993  -12.7487   39.1973 C   0  0  0  0  0  0  0  0  0  0  0  0
   27.2531  -12.7827   39.3003 O   0  0  0  0  0  0  0  0  0  0  0  0
   29.0364  -12.0331   38.1788 N   0  0  0  0  0  0  0  0  0  0  0  0
   30.3519  -11.9456   37.9986 C   0  0  0  0  0  0  0  0  0  0  0  0
   30.7538  -11.2448   37.0067 O   0  0  0  0  0  0  0  0  0  0  0  0
   28.3815  -11.5351   37.5156 H   0  0  0  0  0  0  0  0  0  0  0  0
   35.8226  -14.5012   35.8850 C   0  0  0  0  0  0  0  0  0  0  0  0
   37.5969  -13.5276   37.3568 C   0  0  0  0  0  0  0  0  0  0  0  0
   36.9323  -14.8062   36.8351 C   0  0  0  0  0  0  0  0  0  0  0  0
   36.3913  -15.6024   38.0368 C   0  0  0  0  0  0  0  0  0  0  0  0
 35 36  1  0  0  0
 36 37  1  0  0  0
 36 34  1  0  0  0
 34  1  1  0  0  0
  1  2  1  0  0  0
  2  3  1  0  0  0
  3  4  2  0  0  0
  3  6  1  0  0  0
  6  7  1  0  0  0
  6  9  1  0  0  0
  9 10  1  0  0  0
  9 13  1  0  0  0
 13 14  1  0  0  0
 14 15  2  0  0  0
 15 16  1  0  0  0
 16 17  2  0  0  0
 17 18  1  0  0  0
 18 19  2  0  0  0
  1 20  1  0  0  0
 20 21  2  0  0  0
 20 22  1  0  0  0
 22 23  1  0  0  0
 23 24  1  0  0  0
 24 25  1  0  0  0
 25 26  2  0  0  0
 26 27  1  0  0  0
 26 28  1  0  0  0
 28 29  2  0  0  0
 28 30  1  0  0  0
 30 31  1  0  0  0
 31 32  2  0  0  0
 19 14  1  0  0  0
 31 24  1  0  0  0
  2  5  1  0  0  0
  7  8  1  0  0  0
 10 11  1  0  0  0
 10 12  1  0  0  0
 30 33  1  0  0  0
M  END
> <minimizedAffinity>
-7.84105

> <CNNscore>
0.1658155471

> <CNNaffinity>
5.4336118698

> <CNN_VS>
0.9009773135

> <CNNaffinity_variance>
0.6457736492

$$$$
