[H]c1nc(N([H])c2c([H])c([H])c(C(F)(F)F)c([H])c2OC([H])([H])[H])nc(N([H])c2c([H])c([H])c([H])c([H])c2S(=O)(=O)C([H])(C([H])([H])[H])C([H])([H])[H])c1Cl


 35 37  0  0  0  0  0  0  0  0999 V2000
   33.4081  -13.0378   36.7225 C   0  0  0  0  0  0  0  0  0  0  0  0
   34.5242  -12.4977   37.1809 N   0  0  0  0  0  0  0  0  0  0  0  0
   35.6433  -13.1338   37.4614 C   0  0  0  0  0  0  0  0  0  0  0  0
   35.6497  -14.5081   37.2585 C   0  0  0  0  0  0  0  0  0  0  0  0
   37.0617  -15.4528   37.6273 Cl  0  0  0  0  0  0  0  0  0  0  0  0
   34.5057  -15.1796   36.7673 C   0  0  0  0  0  0  0  0  0  0  0  0
   33.4451  -14.3822   36.5299 N   0  0  0  0  0  0  0  0  0  0  0  0
   32.1960  -12.3269   36.5118 N   0  0  0  0  0  0  0  0  0  0  0  0
   31.9916  -11.9974   35.5123 H   0  0  0  0  0  0  0  0  0  0  0  0
   30.7145  -10.6782   37.4962 C   0  0  0  0  0  0  0  0  0  0  0  0
   29.7410  -10.2805   38.3616 C   0  0  0  0  0  0  0  0  0  0  0  0
   29.2155  -11.1903   39.2574 C   0  0  0  0  0  0  0  0  0  0  0  0
   29.6613  -12.4629   39.2779 C   0  0  0  0  0  0  0  0  0  0  0  0
   30.6666  -12.8537   38.3761 C   0  0  0  0  0  0  0  0  0  0  0  0
   31.2207  -11.9909   37.4642 C   0  0  0  0  0  0  0  0  0  0  0  0
   28.1488  -10.7749   40.1814 C   0  0  0  0  0  0  0  0  0  0  0  0
   27.6782   -9.5180   39.8006 F   0  0  0  0  0  0  0  0  0  0  0  0
   27.0949  -11.6423   40.1188 F   0  0  0  0  0  0  0  0  0  0  0  0
   28.5963  -10.7691   41.5035 F   0  0  0  0  0  0  0  0  0  0  0  0
   32.0051   -8.6442   36.8991 C   0  0  0  0  0  0  0  0  0  0  0  0
   31.2469   -9.7640   36.5941 O   0  0  0  0  0  0  0  0  0  0  0  0
   34.5936  -16.5581   36.5870 N   0  0  0  0  0  0  0  0  0  0  0  0
   34.0865  -17.1357   37.3258 H   0  0  0  0  0  0  0  0  0  0  0  0
   35.2442  -17.2933   35.5985 C   0  0  0  0  0  0  0  0  0  0  0  0
   36.5039  -16.9231   35.0920 C   0  0  0  0  0  0  0  0  0  0  0  0
   37.0717  -17.6205   34.0472 C   0  0  0  0  0  0  0  0  0  0  0  0
   36.4046  -18.6856   33.4937 C   0  0  0  0  0  0  0  0  0  0  0  0
   35.1843  -19.0630   33.9725 C   0  0  0  0  0  0  0  0  0  0  0  0
   34.5756  -18.3779   35.0342 C   0  0  0  0  0  0  0  0  0  0  0  0
   33.1145  -19.0347   35.6662 S   0  0  0  0  0  0  0  0  0  0  0  0
   32.1663  -17.8706   36.0188 O   0  0  0  0  0  0  0  0  0  0  0  0
   33.1812  -19.8445   36.8849 O   0  0  0  0  0  0  0  0  0  0  0  0
   32.2187  -19.9560   34.4153 C   0  0  0  0  0  0  0  0  0  0  0  0
   32.4737  -21.4324   34.6045 C   0  0  0  0  0  0  0  0  0  0  0  0
   30.7284  -19.6717   34.5310 C   0  0  0  0  0  0  0  0  0  0  0  0
 20 21  1  0  0  0
 21 10  1  0  0  0
 10 11  2  0  0  0
 11 12  1  0  0  0
 12 13  2  0  0  0
 13 14  1  0  0  0
 14 15  2  0  0  0
 15  8  1  0  0  0
  8  1  1  0  0  0
  1  2  2  0  0  0
  2  3  1  0  0  0
  3  4  2  0  0  0
  4  5  1  0  0  0
  4  6  1  0  0  0
  6 22  1  0  0  0
 22 24  1  0  0  0
 24 25  2  0  0  0
 25 26  1  0  0  0
 26 27  2  0  0  0
 27 28  1  0  0  0
 28 29  2  0  0  0
 29 30  1  0  0  0
 30 31  2  0  0  0
 30 32  2  0  0  0
 30 33  1  0  0  0
 33 34  1  0  0  0
 33 35  1  0  0  0
  6  7  2  0  0  0
 12 16  1  0  0  0
 16 17  1  0  0  0
 16 18  1  0  0  0
 16 19  1  0  0  0
 15 10  1  0  0  0
  7  1  1  0  0  0
 29 24  1  0  0  0
  8  9  1  0  0  0
 22 23  1  0  0  0
M  END
> <minimizedAffinity>
-7.49708

> <CNNscore>
0.3905143142

> <CNNaffinity>
6.9668159485

> <CNN_VS>
2.7206413746

> <CNNaffinity_variance>
0.1408630908

$$$$
[H]c1nc(N([H])c2c([H])c([H])c(C(F)(F)F)c([H])c2OC([H])([H])[H])nc(N([H])c2c([H])c([H])c([H])c([H])c2S(=O)(=O)C([H])(C([H])([H])[H])C([H])([H])[H])c1Cl


 35 37  0  0  0  0  0  0  0  0999 V2000
   33.0165  -12.8576   36.7592 C   0  0  0  0  0  0  0  0  0  0  0  0
   33.9877  -12.0274   37.0980 N   0  0  0  0  0  0  0  0  0  0  0  0
   35.2529  -12.3406   37.2908 C   0  0  0  0  0  0  0  0  0  0  0  0
   35.5993  -13.6756   37.1247 C   0  0  0  0  0  0  0  0  0  0  0  0
   37.2337  -14.2073   37.3866 Cl  0  0  0  0  0  0  0  0  0  0  0  0
   34.6327  -14.6415   36.7593 C   0  0  0  0  0  0  0  0  0  0  0  0
   33.3855  -14.1555   36.5998 N   0  0  0  0  0  0  0  0  0  0  0  0
   31.6482  -12.4927   36.6425 N   0  0  0  0  0  0  0  0  0  0  0  0
   31.2040  -12.5712   35.6700 H   0  0  0  0  0  0  0  0  0  0  0  0
   30.4686  -10.6604   37.7070 C   0  0  0  0  0  0  0  0  0  0  0  0
   29.6180  -10.1356   38.6322 C   0  0  0  0  0  0  0  0  0  0  0  0
   29.0402  -10.9660   39.5718 C   0  0  0  0  0  0  0  0  0  0  0  0
   29.3146  -12.2863   39.5761 C   0  0  0  0  0  0  0  0  0  0  0  0
   30.1950  -12.8086   38.6123 C   0  0  0  0  0  0  0  0  0  0  0  0
   30.7937  -12.0286   37.6553 C   0  0  0  0  0  0  0  0  0  0  0  0
   28.1039  -10.4111   40.5615 C   0  0  0  0  0  0  0  0  0  0  0  0
   27.1640  -11.3856   40.8981 F   0  0  0  0  0  0  0  0  0  0  0  0
   28.7645  -10.0673   41.7071 F   0  0  0  0  0  0  0  0  0  0  0  0
   27.4857   -9.2548   40.0828 F   0  0  0  0  0  0  0  0  0  0  0  0
   31.9565   -8.8031   37.0029 C   0  0  0  0  0  0  0  0  0  0  0  0
   31.0534   -9.8265   36.7606 O   0  0  0  0  0  0  0  0  0  0  0  0
   35.0605  -15.9586   36.6083 N   0  0  0  0  0  0  0  0  0  0  0  0
   35.8819  -16.2326   37.2303 H   0  0  0  0  0  0  0  0  0  0  0  0
   34.5863  -16.9648   35.7695 C   0  0  0  0  0  0  0  0  0  0  0  0
   33.4778  -16.7780   34.9228 C   0  0  0  0  0  0  0  0  0  0  0  0
   32.9793  -17.8263   34.1793 C   0  0  0  0  0  0  0  0  0  0  0  0
   33.5671  -19.0646   34.2638 C   0  0  0  0  0  0  0  0  0  0  0  0
   34.6448  -19.2657   35.0755 C   0  0  0  0  0  0  0  0  0  0  0  0
   35.1797  -18.2232   35.8465 C   0  0  0  0  0  0  0  0  0  0  0  0
   36.6352  -18.5430   36.7094 S   0  0  0  0  0  0  0  0  0  0  0  0
   36.2688  -19.1317   38.0870 O   0  0  0  0  0  0  0  0  0  0  0  0
   37.5318  -17.4238   37.0079 O   0  0  0  0  0  0  0  0  0  0  0  0
   37.5866  -19.8447   35.9241 C   0  0  0  0  0  0  0  0  0  0  0  0
   38.8131  -19.2460   35.2778 C   0  0  0  0  0  0  0  0  0  0  0  0
   38.0029  -20.8785   36.9600 C   0  0  0  0  0  0  0  0  0  0  0  0
 20 21  1  0  0  0
 21 10  1  0  0  0
 10 11  2  0  0  0
 11 12  1  0  0  0
 12 13  2  0  0  0
 13 14  1  0  0  0
 14 15  2  0  0  0
 15  8  1  0  0  0
  8  1  1  0  0  0
  1  2  2  0  0  0
  2  3  1  0  0  0
  3  4  2  0  0  0
  4  5  1  0  0  0
  4  6  1  0  0  0
  6 22  1  0  0  0
 22 24  1  0  0  0
 24 25  2  0  0  0
 25 26  1  0  0  0
 26 27  2  0  0  0
 27 28  1  0  0  0
 28 29  2  0  0  0
 29 30  1  0  0  0
 30 31  2  0  0  0
 30 32  2  0  0  0
 30 33  1  0  0  0
 33 34  1  0  0  0
 33 35  1  0  0  0
  6  7  2  0  0  0
 12 16  1  0  0  0
 16 17  1  0  0  0
 16 18  1  0  0  0
 16 19  1  0  0  0
 15 10  1  0  0  0
  7  1  1  0  0  0
 29 24  1  0  0  0
  8  9  1  0  0  0
 22 23  1  0  0  0
M  END
> <minimizedAffinity>
-7.34227

> <CNNscore>
0.3495086730

> <CNNaffinity>
6.7799401283

> <CNN_VS>
2.3696479797

> <CNNaffinity_variance>
0.1127361655

$$$$
[H]c1nc(N([H])c2c([H])c([H])c(C(F)(F)F)c([H])c2OC([H])([H])[H])nc(N([H])c2c([H])c([H])c([H])c([H])c2S(=O)(=O)C([H])(C([H])([H])[H])C([H])([H])[H])c1Cl


 35 37  0  0  0  0  0  0  0  0999 V2000
   32.5461  -18.5916   35.1775 C   0  0  0  0  0  0  0  0  0  0  0  0
   31.3128  -18.9045   34.8190 N   0  0  0  0  0  0  0  0  0  0  0  0
   30.6277  -19.9592   35.2116 C   0  0  0  0  0  0  0  0  0  0  0  0
   31.2659  -20.8298   36.0859 C   0  0  0  0  0  0  0  0  0  0  0  0
   30.4687  -22.2711   36.6422 Cl  0  0  0  0  0  0  0  0  0  0  0  0
   32.5852  -20.5814   36.5315 C   0  0  0  0  0  0  0  0  0  0  0  0
   33.1433  -19.4588   36.0362 N   0  0  0  0  0  0  0  0  0  0  0  0
   33.2789  -17.4873   34.6650 N   0  0  0  0  0  0  0  0  0  0  0  0
   33.2096  -17.3033   33.6112 H   0  0  0  0  0  0  0  0  0  0  0  0
   35.4843  -16.8425   35.4408 C   0  0  0  0  0  0  0  0  0  0  0  0
   36.3549  -16.0097   36.0760 C   0  0  0  0  0  0  0  0  0  0  0  0
   35.8777  -14.8697   36.6917 C   0  0  0  0  0  0  0  0  0  0  0  0
   34.5607  -14.5812   36.6665 C   0  0  0  0  0  0  0  0  0  0  0  0
   33.6784  -15.4536   36.0053 C   0  0  0  0  0  0  0  0  0  0  0  0
   34.1001  -16.5974   35.3756 C   0  0  0  0  0  0  0  0  0  0  0  0
   36.8137  -13.9536   37.3617 C   0  0  0  0  0  0  0  0  0  0  0  0
   37.9009  -13.7152   36.5206 F   0  0  0  0  0  0  0  0  0  0  0  0
   36.2147  -12.7502   37.6068 F   0  0  0  0  0  0  0  0  0  0  0  0
   37.2281  -14.4630   38.5935 F   0  0  0  0  0  0  0  0  0  0  0  0
   37.1170  -18.1066   34.0639 C   0  0  0  0  0  0  0  0  0  0  0  0
   35.9615  -17.9921   34.8214 O   0  0  0  0  0  0  0  0  0  0  0  0
   33.1537  -21.5000   37.4111 N   0  0  0  0  0  0  0  0  0  0  0  0
   32.6423  -22.4335   37.4698 H   0  0  0  0  0  0  0  0  0  0  0  0
   34.2780  -21.3839   38.2256 C   0  0  0  0  0  0  0  0  0  0  0  0
   35.3277  -20.4923   37.9363 C   0  0  0  0  0  0  0  0  0  0  0  0
   36.4667  -20.4751   38.7127 C   0  0  0  0  0  0  0  0  0  0  0  0
   36.5810  -21.3344   39.7778 C   0  0  0  0  0  0  0  0  0  0  0  0
   35.5733  -22.2037   40.0774 C   0  0  0  0  0  0  0  0  0  0  0  0
   34.3998  -22.2497   39.3107 C   0  0  0  0  0  0  0  0  0  0  0  0
   33.1275  -23.2661   39.8706 S   0  0  0  0  0  0  0  0  0  0  0  0
   31.8031  -22.4793   39.7962 O   0  0  0  0  0  0  0  0  0  0  0  0
   33.1869  -23.7683   41.2453 O   0  0  0  0  0  0  0  0  0  0  0  0
   32.8668  -24.6539   38.7652 C   0  0  0  0  0  0  0  0  0  0  0  0
   34.2024  -25.1564   38.2712 C   0  0  0  0  0  0  0  0  0  0  0  0
   32.1359  -25.7693   39.4980 C   0  0  0  0  0  0  0  0  0  0  0  0
 20 21  1  0  0  0
 21 10  1  0  0  0
 10 11  2  0  0  0
 11 12  1  0  0  0
 12 13  2  0  0  0
 13 14  1  0  0  0
 14 15  2  0  0  0
 15  8  1  0  0  0
  8  1  1  0  0  0
  1  2  2  0  0  0
  2  3  1  0  0  0
  3  4  2  0  0  0
  4  5  1  0  0  0
  4  6  1  0  0  0
  6 22  1  0  0  0
 22 24  1  0  0  0
 24 25  2  0  0  0
 25 26  1  0  0  0
 26 27  2  0  0  0
 27 28  1  0  0  0
 28 29  2  0  0  0
 29 30  1  0  0  0
 30 31  2  0  0  0
 30 32  2  0  0  0
 30 33  1  0  0  0
 33 34  1  0  0  0
 33 35  1  0  0  0
  6  7  2  0  0  0
 12 16  1  0  0  0
 16 17  1  0  0  0
 16 18  1  0  0  0
 16 19  1  0  0  0
 15 10  1  0  0  0
  7  1  1  0  0  0
 29 24  1  0  0  0
  8  9  1  0  0  0
 22 23  1  0  0  0
M  END
> <minimizedAffinity>
-6.19213

> <CNNscore>
0.1989289373

> <CNNaffinity>
5.7563571930

> <CNN_VS>
1.1451060772

> <CNNaffinity_variance>
0.5173794627

$$$$
[H]c1nc(N([H])c2c([H])c([H])c(C(F)(F)F)c([H])c2OC([H])([H])[H])nc(N([H])c2c([H])c([H])c([H])c([H])c2S(=O)(=O)C([H])(C([H])([H])[H])C([H])([H])[H])c1Cl


 35 37  0  0  0  0  0  0  0  0999 V2000
   33.1439  -17.8364   35.7463 C   0  0  0  0  0  0  0  0  0  0  0  0
   31.9819  -18.4184   35.5050 N   0  0  0  0  0  0  0  0  0  0  0  0
   31.7469  -19.7146   35.4774 C   0  0  0  0  0  0  0  0  0  0  0  0
   32.8280  -20.5518   35.7230 C   0  0  0  0  0  0  0  0  0  0  0  0
   32.6402  -22.2795   35.6783 Cl  0  0  0  0  0  0  0  0  0  0  0  0
   34.1126  -20.0259   35.9951 C   0  0  0  0  0  0  0  0  0  0  0  0
   34.1817  -18.6797   35.9869 N   0  0  0  0  0  0  0  0  0  0  0  0
   33.3718  -16.4352   35.6843 N   0  0  0  0  0  0  0  0  0  0  0  0
   32.5772  -15.8288   35.2970 H   0  0  0  0  0  0  0  0  0  0  0  0
   34.4300  -14.3672   36.3809 C   0  0  0  0  0  0  0  0  0  0  0  0
   35.4936  -13.6251   36.7967 C   0  0  0  0  0  0  0  0  0  0  0  0
   36.7323  -14.2226   36.9194 C   0  0  0  0  0  0  0  0  0  0  0  0
   36.8906  -15.5301   36.6297 C   0  0  0  0  0  0  0  0  0  0  0  0
   35.7800  -16.2789   36.2024 C   0  0  0  0  0  0  0  0  0  0  0  0
   34.5275  -15.7353   36.0664 C   0  0  0  0  0  0  0  0  0  0  0  0
   37.8820  -13.4337   37.3881 C   0  0  0  0  0  0  0  0  0  0  0  0
   37.9149  -12.2205   36.7000 F   0  0  0  0  0  0  0  0  0  0  0  0
   37.7566  -13.1461   38.7180 F   0  0  0  0  0  0  0  0  0  0  0  0
   39.0776  -14.1371   37.2324 F   0  0  0  0  0  0  0  0  0  0  0  0
   32.6553  -12.7717   37.0625 C   0  0  0  0  0  0  0  0  0  0  0  0
   33.1818  -13.7679   36.2548 O   0  0  0  0  0  0  0  0  0  0  0  0
   35.1437  -20.9313   36.2351 N   0  0  0  0  0  0  0  0  0  0  0  0
   35.4047  -21.5387   35.3987 H   0  0  0  0  0  0  0  0  0  0  0  0
   35.8774  -21.1675   37.3956 C   0  0  0  0  0  0  0  0  0  0  0  0
   35.3173  -21.7916   38.5257 C   0  0  0  0  0  0  0  0  0  0  0  0
   36.0466  -21.9209   39.6884 C   0  0  0  0  0  0  0  0  0  0  0  0
   37.3305  -21.4372   39.7474 C   0  0  0  0  0  0  0  0  0  0  0  0
   37.8932  -20.8324   38.6619 C   0  0  0  0  0  0  0  0  0  0  0  0
   37.1823  -20.6831   37.4621 C   0  0  0  0  0  0  0  0  0  0  0  0
   38.0389  -20.0535   36.1074 S   0  0  0  0  0  0  0  0  0  0  0  0
   38.6901  -18.7169   36.5175 O   0  0  0  0  0  0  0  0  0  0  0  0
   37.2891  -19.7449   34.8875 O   0  0  0  0  0  0  0  0  0  0  0  0
   39.4320  -21.0964   35.6743 C   0  0  0  0  0  0  0  0  0  0  0  0
   39.1428  -21.7994   34.3695 C   0  0  0  0  0  0  0  0  0  0  0  0
   40.6889  -20.2500   35.5358 C   0  0  0  0  0  0  0  0  0  0  0  0
 20 21  1  0  0  0
 21 10  1  0  0  0
 10 11  2  0  0  0
 11 12  1  0  0  0
 12 13  2  0  0  0
 13 14  1  0  0  0
 14 15  2  0  0  0
 15  8  1  0  0  0
  8  1  1  0  0  0
  1  2  2  0  0  0
  2  3  1  0  0  0
  3  4  2  0  0  0
  4  5  1  0  0  0
  4  6  1  0  0  0
  6 22  1  0  0  0
 22 24  1  0  0  0
 24 25  2  0  0  0
 25 26  1  0  0  0
 26 27  2  0  0  0
 27 28  1  0  0  0
 28 29  2  0  0  0
 29 30  1  0  0  0
 30 31  2  0  0  0
 30 32  2  0  0  0
 30 33  1  0  0  0
 33 34  1  0  0  0
 33 35  1  0  0  0
  6  7  2  0  0  0
 12 16  1  0  0  0
 16 17  1  0  0  0
 16 18  1  0  0  0
 16 19  1  0  0  0
 15 10  1  0  0  0
  7  1  1  0  0  0
 29 24  1  0  0  0
  8  9  1  0  0  0
 22 23  1  0  0  0
M  END
> <minimizedAffinity>
-6.59926

> <CNNscore>
0.1807513684

> <CNNaffinity>
5.8565745354

> <CNN_VS>
1.0585838556

> <CNNaffinity_variance>
0.3112707734

$$$$
[H]c1nc(N([H])c2c([H])c([H])c(C(F)(F)F)c([H])c2OC([H])([H])[H])nc(N([H])c2c([H])c([H])c([H])c([H])c2S(=O)(=O)C([H])(C([H])([H])[H])C([H])([H])[H])c1Cl


 35 37  0  0  0  0  0  0  0  0999 V2000
   33.1870  -17.9303   35.4502 C   0  0  0  0  0  0  0  0  0  0  0  0
   32.3706  -18.5716   34.6318 N   0  0  0  0  0  0  0  0  0  0  0  0
   32.1754  -19.8736   34.5833 C   0  0  0  0  0  0  0  0  0  0  0  0
   32.9017  -20.6490   35.4784 C   0  0  0  0  0  0  0  0  0  0  0  0
   32.7482  -22.3808   35.4797 Cl  0  0  0  0  0  0  0  0  0  0  0  0
   33.7992  -20.0569   36.3973 C   0  0  0  0  0  0  0  0  0  0  0  0
   33.8808  -18.7138   36.3168 N   0  0  0  0  0  0  0  0  0  0  0  0
   33.4300  -16.5308   35.4131 N   0  0  0  0  0  0  0  0  0  0  0  0
   32.6683  -15.9152   34.9771 H   0  0  0  0  0  0  0  0  0  0  0  0
   34.4403  -14.4937   36.2566 C   0  0  0  0  0  0  0  0  0  0  0  0
   35.4795  -13.7664   36.7525 C   0  0  0  0  0  0  0  0  0  0  0  0
   36.7176  -14.3606   36.8947 C   0  0  0  0  0  0  0  0  0  0  0  0
   36.8995  -15.6503   36.5454 C   0  0  0  0  0  0  0  0  0  0  0  0
   35.8139  -16.3841   36.0358 C   0  0  0  0  0  0  0  0  0  0  0  0
   34.5629  -15.8432   35.8769 C   0  0  0  0  0  0  0  0  0  0  0  0
   37.8403  -13.5885   37.4493 C   0  0  0  0  0  0  0  0  0  0  0  0
   37.7267  -13.5508   38.8392 F   0  0  0  0  0  0  0  0  0  0  0  0
   39.0302  -14.1912   37.1526 F   0  0  0  0  0  0  0  0  0  0  0  0
   37.8873  -12.3021   36.9096 F   0  0  0  0  0  0  0  0  0  0  0  0
   32.6562  -12.8936   36.9018 C   0  0  0  0  0  0  0  0  0  0  0  0
   33.1926  -13.8977   36.1107 O   0  0  0  0  0  0  0  0  0  0  0  0
   34.4870  -20.9025   37.2648 N   0  0  0  0  0  0  0  0  0  0  0  0
   33.9051  -21.7053   37.6565 H   0  0  0  0  0  0  0  0  0  0  0  0
   35.8093  -20.8563   37.7012 C   0  0  0  0  0  0  0  0  0  0  0  0
   36.8755  -20.5406   36.8387 C   0  0  0  0  0  0  0  0  0  0  0  0
   38.1786  -20.5993   37.2847 C   0  0  0  0  0  0  0  0  0  0  0  0
   38.4415  -20.9690   38.5809 C   0  0  0  0  0  0  0  0  0  0  0  0
   37.4221  -21.2752   39.4340 C   0  0  0  0  0  0  0  0  0  0  0  0
   36.0840  -21.2264   39.0163 C   0  0  0  0  0  0  0  0  0  0  0  0
   34.8713  -21.4731   40.2137 S   0  0  0  0  0  0  0  0  0  0  0  0
   34.7660  -22.9848   40.5002 O   0  0  0  0  0  0  0  0  0  0  0  0
   33.4998  -21.0526   39.9172 O   0  0  0  0  0  0  0  0  0  0  0  0
   35.3577  -20.7689   41.7896 C   0  0  0  0  0  0  0  0  0  0  0  0
   34.5858  -19.4925   42.0256 C   0  0  0  0  0  0  0  0  0  0  0  0
   35.0713  -21.7585   42.9093 C   0  0  0  0  0  0  0  0  0  0  0  0
 20 21  1  0  0  0
 21 10  1  0  0  0
 10 11  2  0  0  0
 11 12  1  0  0  0
 12 13  2  0  0  0
 13 14  1  0  0  0
 14 15  2  0  0  0
 15  8  1  0  0  0
  8  1  1  0  0  0
  1  2  2  0  0  0
  2  3  1  0  0  0
  3  4  2  0  0  0
  4  5  1  0  0  0
  4  6  1  0  0  0
  6 22  1  0  0  0
 22 24  1  0  0  0
 24 25  2  0  0  0
 25 26  1  0  0  0
 26 27  2  0  0  0
 27 28  1  0  0  0
 28 29  2  0  0  0
 29 30  1  0  0  0
 30 31  2  0  0  0
 30 32  2  0  0  0
 30 33  1  0  0  0
 33 34  1  0  0  0
 33 35  1  0  0  0
  6  7  2  0  0  0
 12 16  1  0  0  0
 16 17  1  0  0  0
 16 18  1  0  0  0
 16 19  1  0  0  0
 15 10  1  0  0  0
  7  1  1  0  0  0
 29 24  1  0  0  0
  8  9  1  0  0  0
 22 23  1  0  0  0
M  END
> <minimizedAffinity>
-6.50443

> <CNNscore>
0.1789873987

> <CNNaffinity>
5.9185333252

> <CNN_VS>
1.0593428612

> <CNNaffinity_variance>
0.1813488752

$$$$
[H]c1nc(N([H])c2c([H])c([H])c(C(F)(F)F)c([H])c2OC([H])([H])[H])nc(N([H])c2c([H])c([H])c([H])c([H])c2S(=O)(=O)C([H])(C([H])([H])[H])C([H])([H])[H])c1Cl


 35 37  0  0  0  0  0  0  0  0999 V2000
   36.9613  -17.8376   36.3306 C   0  0  0  0  0  0  0  0  0  0  0  0
   35.9782  -18.7157   36.4288 N   0  0  0  0  0  0  0  0  0  0  0  0
   36.0949  -19.9878   36.7517 C   0  0  0  0  0  0  0  0  0  0  0  0
   37.3782  -20.4523   37.0112 C   0  0  0  0  0  0  0  0  0  0  0  0
   37.6531  -22.1211   37.4136 Cl  0  0  0  0  0  0  0  0  0  0  0  0
   38.4967  -19.5898   36.9361 C   0  0  0  0  0  0  0  0  0  0  0  0
   38.2042  -18.3192   36.5941 N   0  0  0  0  0  0  0  0  0  0  0  0
   36.8014  -16.4936   35.8980 N   0  0  0  0  0  0  0  0  0  0  0  0
   37.4905  -16.1338   35.1599 H   0  0  0  0  0  0  0  0  0  0  0  0
   36.2411  -14.5037   37.1662 C   0  0  0  0  0  0  0  0  0  0  0  0
   35.3839  -13.5366   37.5960 C   0  0  0  0  0  0  0  0  0  0  0  0
   34.0606  -13.5790   37.2045 C   0  0  0  0  0  0  0  0  0  0  0  0
   33.6176  -14.5694   36.4036 C   0  0  0  0  0  0  0  0  0  0  0  0
   34.5185  -15.5581   35.9704 C   0  0  0  0  0  0  0  0  0  0  0  0
   35.8433  -15.5614   36.3275 C   0  0  0  0  0  0  0  0  0  0  0  0
   33.1326  -12.5267   37.6468 C   0  0  0  0  0  0  0  0  0  0  0  0
   31.9832  -12.5695   36.8572 F   0  0  0  0  0  0  0  0  0  0  0  0
   32.7479  -12.7389   38.9406 F   0  0  0  0  0  0  0  0  0  0  0  0
   33.7333  -11.2676   37.5996 F   0  0  0  0  0  0  0  0  0  0  0  0
   38.4002  -13.3517   37.5792 C   0  0  0  0  0  0  0  0  0  0  0  0
   37.5739  -14.4647   37.5601 O   0  0  0  0  0  0  0  0  0  0  0  0
   39.7497  -20.1311   37.2148 N   0  0  0  0  0  0  0  0  0  0  0  0
   39.7994  -21.1938   37.1463 H   0  0  0  0  0  0  0  0  0  0  0  0
   40.9391  -19.5005   37.5735 C   0  0  0  0  0  0  0  0  0  0  0  0
   41.5629  -18.5460   36.7487 C   0  0  0  0  0  0  0  0  0  0  0  0
   42.7877  -18.0154   37.0932 C   0  0  0  0  0  0  0  0  0  0  0  0
   43.4069  -18.4201   38.2503 C   0  0  0  0  0  0  0  0  0  0  0  0
   42.8173  -19.3412   39.0655 C   0  0  0  0  0  0  0  0  0  0  0  0
   41.5718  -19.9027   38.7481 C   0  0  0  0  0  0  0  0  0  0  0  0
   40.8444  -20.9308   39.9225 S   0  0  0  0  0  0  0  0  0  0  0  0
   41.1359  -22.3959   39.5390 O   0  0  0  0  0  0  0  0  0  0  0  0
   39.3914  -20.8729   40.0988 O   0  0  0  0  0  0  0  0  0  0  0  0
   41.6234  -20.7422   41.5267 C   0  0  0  0  0  0  0  0  0  0  0  0
   40.9252  -19.6455   42.2949 C   0  0  0  0  0  0  0  0  0  0  0  0
   41.5366  -22.0491   42.3011 C   0  0  0  0  0  0  0  0  0  0  0  0
 20 21  1  0  0  0
 21 10  1  0  0  0
 10 11  2  0  0  0
 11 12  1  0  0  0
 12 13  2  0  0  0
 13 14  1  0  0  0
 14 15  2  0  0  0
 15  8  1  0  0  0
  8  1  1  0  0  0
  1  2  2  0  0  0
  2  3  1  0  0  0
  3  4  2  0  0  0
  4  5  1  0  0  0
  4  6  1  0  0  0
  6 22  1  0  0  0
 22 24  1  0  0  0
 24 25  2  0  0  0
 25 26  1  0  0  0
 26 27  2  0  0  0
 27 28  1  0  0  0
 28 29  2  0  0  0
 29 30  1  0  0  0
 30 31  2  0  0  0
 30 32  2  0  0  0
 30 33  1  0  0  0
 33 34  1  0  0  0
 33 35  1  0  0  0
  6  7  2  0  0  0
 12 16  1  0  0  0
 16 17  1  0  0  0
 16 18  1  0  0  0
 16 19  1  0  0  0
 15 10  1  0  0  0
  7  1  1  0  0  0
 29 24  1  0  0  0
  8  9  1  0  0  0
 22 23  1  0  0  0
M  END
> <minimizedAffinity>
-7.46123

> <CNNscore>
0.1551818550

> <CNNaffinity>
5.9477162361

> <CNN_VS>
0.9229776263

> <CNNaffinity_variance>
0.2518947124

$$$$
[H]c1nc(N([H])c2c([H])c([H])c(C(F)(F)F)c([H])c2OC([H])([H])[H])nc(N([H])c2c([H])c([H])c([H])c([H])c2S(=O)(=O)C([H])(C([H])([H])[H])C([H])([H])[H])c1Cl


 35 37  0  0  0  0  0  0  0  0999 V2000
   32.9118  -19.5449   34.7365 C   0  0  0  0  0  0  0  0  0  0  0  0
   32.7862  -18.3808   34.1231 N   0  0  0  0  0  0  0  0  0  0  0  0
   33.4418  -17.2732   34.4049 C   0  0  0  0  0  0  0  0  0  0  0  0
   34.3524  -17.3345   35.4523 C   0  0  0  0  0  0  0  0  0  0  0  0
   35.2483  -15.9242   35.9326 Cl  0  0  0  0  0  0  0  0  0  0  0  0
   34.5619  -18.5357   36.1692 C   0  0  0  0  0  0  0  0  0  0  0  0
   33.8123  -19.5760   35.7535 N   0  0  0  0  0  0  0  0  0  0  0  0
   32.1242  -20.6936   34.4547 N   0  0  0  0  0  0  0  0  0  0  0  0
   32.3968  -21.2724   33.5946 H   0  0  0  0  0  0  0  0  0  0  0  0
   31.0870  -22.4249   35.7995 C   0  0  0  0  0  0  0  0  0  0  0  0
   30.0694  -22.9418   36.5427 C   0  0  0  0  0  0  0  0  0  0  0  0
   28.9035  -22.2180   36.6944 C   0  0  0  0  0  0  0  0  0  0  0  0
   28.7703  -21.0091   36.1119 C   0  0  0  0  0  0  0  0  0  0  0  0
   29.8325  -20.4929   35.3491 C   0  0  0  0  0  0  0  0  0  0  0  0
   31.0128  -21.1691   35.1688 C   0  0  0  0  0  0  0  0  0  0  0  0
   27.8075  -22.7594   37.5129 C   0  0  0  0  0  0  0  0  0  0  0  0
   28.3441  -23.3897   38.6359 F   0  0  0  0  0  0  0  0  0  0  0  0
   26.9977  -21.7525   37.9571 F   0  0  0  0  0  0  0  0  0  0  0  0
   27.0071  -23.6333   36.7753 F   0  0  0  0  0  0  0  0  0  0  0  0
   32.4689  -24.4772   35.9943 C   0  0  0  0  0  0  0  0  0  0  0  0
   32.2617  -23.1521   35.6434 O   0  0  0  0  0  0  0  0  0  0  0  0
   35.4954  -18.5165   37.2031 N   0  0  0  0  0  0  0  0  0  0  0  0
   35.1664  -18.0232   38.0891 H   0  0  0  0  0  0  0  0  0  0  0  0
   36.7876  -19.0346   37.2540 C   0  0  0  0  0  0  0  0  0  0  0  0
   37.8530  -18.4716   36.5271 C   0  0  0  0  0  0  0  0  0  0  0  0
   39.0950  -19.0696   36.5275 C   0  0  0  0  0  0  0  0  0  0  0  0
   39.2973  -20.2249   37.2420 C   0  0  0  0  0  0  0  0  0  0  0  0
   38.2788  -20.7846   37.9563 C   0  0  0  0  0  0  0  0  0  0  0  0
   37.0020  -20.2046   37.9799 C   0  0  0  0  0  0  0  0  0  0  0  0
   35.8363  -20.8996   39.0398 S   0  0  0  0  0  0  0  0  0  0  0  0
   34.9196  -19.7758   39.5646 O   0  0  0  0  0  0  0  0  0  0  0  0
   36.3080  -21.5892   40.2430 O   0  0  0  0  0  0  0  0  0  0  0  0
   34.7191  -21.9894   38.1565 C   0  0  0  0  0  0  0  0  0  0  0  0
   35.3131  -23.3769   38.1037 C   0  0  0  0  0  0  0  0  0  0  0  0
   33.3719  -22.0325   38.8624 C   0  0  0  0  0  0  0  0  0  0  0  0
 20 21  1  0  0  0
 21 10  1  0  0  0
 10 11  2  0  0  0
 11 12  1  0  0  0
 12 13  2  0  0  0
 13 14  1  0  0  0
 14 15  2  0  0  0
 15  8  1  0  0  0
  8  1  1  0  0  0
  1  2  2  0  0  0
  2  3  1  0  0  0
  3  4  2  0  0  0
  4  5  1  0  0  0
  4  6  1  0  0  0
  6 22  1  0  0  0
 22 24  1  0  0  0
 24 25  2  0  0  0
 25 26  1  0  0  0
 26 27  2  0  0  0
 27 28  1  0  0  0
 28 29  2  0  0  0
 29 30  1  0  0  0
 30 31  2  0  0  0
 30 32  2  0  0  0
 30 33  1  0  0  0
 33 34  1  0  0  0
 33 35  1  0  0  0
  6  7  2  0  0  0
 12 16  1  0  0  0
 16 17  1  0  0  0
 16 18  1  0  0  0
 16 19  1  0  0  0
 15 10  1  0  0  0
  7  1  1  0  0  0
 29 24  1  0  0  0
  8  9  1  0  0  0
 22 23  1  0  0  0
M  END
> <minimizedAffinity>
-5.67264

> <CNNscore>
0.1464700550

> <CNNaffinity>
5.4595384598

> <CNN_VS>
0.7996588945

> <CNNaffinity_variance>
0.3461203873

$$$$
[H]c1nc(N([H])c2c([H])c([H])c(C(F)(F)F)c([H])c2OC([H])([H])[H])nc(N([H])c2c([H])c([H])c([H])c([H])c2S(=O)(=O)C([H])(C([H])([H])[H])C([H])([H])[H])c1Cl


 35 37  0  0  0  0  0  0  0  0999 V2000
   37.2807  -18.8436   36.9915 C   0  0  0  0  0  0  0  0  0  0  0  0
   38.3950  -19.5290   37.1807 N   0  0  0  0  0  0  0  0  0  0  0  0
   38.5368  -20.5984   37.9370 C   0  0  0  0  0  0  0  0  0  0  0  0
   37.4040  -21.0478   38.6039 C   0  0  0  0  0  0  0  0  0  0  0  0
   37.4833  -22.4300   39.6554 Cl  0  0  0  0  0  0  0  0  0  0  0  0
   36.1624  -20.3848   38.4640 C   0  0  0  0  0  0  0  0  0  0  0  0
   36.1886  -19.3086   37.6528 N   0  0  0  0  0  0  0  0  0  0  0  0
   37.1901  -17.6458   36.2324 N   0  0  0  0  0  0  0  0  0  0  0  0
   37.7761  -17.5911   35.3364 H   0  0  0  0  0  0  0  0  0  0  0  0
   35.1484  -16.3712   35.9350 C   0  0  0  0  0  0  0  0  0  0  0  0
   34.3255  -15.3159   36.1883 C   0  0  0  0  0  0  0  0  0  0  0  0
   34.7426  -14.3208   37.0498 C   0  0  0  0  0  0  0  0  0  0  0  0
   35.9549  -14.3904   37.6364 C   0  0  0  0  0  0  0  0  0  0  0  0
   36.7893  -15.4882   37.3621 C   0  0  0  0  0  0  0  0  0  0  0  0
   36.4228  -16.5049   36.5167 C   0  0  0  0  0  0  0  0  0  0  0  0
   33.8517  -13.1882   37.3455 C   0  0  0  0  0  0  0  0  0  0  0  0
   34.5901  -12.0050   37.3125 F   0  0  0  0  0  0  0  0  0  0  0  0
   32.8737  -13.0864   36.3968 F   0  0  0  0  0  0  0  0  0  0  0  0
   33.2130  -13.3527   38.5758 F   0  0  0  0  0  0  0  0  0  0  0  0
   33.4405  -17.5936   34.6127 C   0  0  0  0  0  0  0  0  0  0  0  0
   34.7319  -17.3739   35.0666 O   0  0  0  0  0  0  0  0  0  0  0  0
   35.0727  -20.8999   39.1624 N   0  0  0  0  0  0  0  0  0  0  0  0
   34.5117  -21.6344   38.6309 H   0  0  0  0  0  0  0  0  0  0  0  0
   34.6028  -20.5995   40.4391 C   0  0  0  0  0  0  0  0  0  0  0  0
   35.1425  -19.5554   41.2130 C   0  0  0  0  0  0  0  0  0  0  0  0
   34.7169  -19.3507   42.5081 C   0  0  0  0  0  0  0  0  0  0  0  0
   33.7585  -20.1713   43.0505 C   0  0  0  0  0  0  0  0  0  0  0  0
   33.2199  -21.1867   42.3158 C   0  0  0  0  0  0  0  0  0  0  0  0
   33.6276  -21.4252   40.9952 C   0  0  0  0  0  0  0  0  0  0  0  0
   32.7704  -22.6254   40.1064 S   0  0  0  0  0  0  0  0  0  0  0  0
   32.6247  -22.1446   38.6483 O   0  0  0  0  0  0  0  0  0  0  0  0
   31.4088  -22.9666   40.5251 O   0  0  0  0  0  0  0  0  0  0  0  0
   33.7225  -24.1388   39.9678 C   0  0  0  0  0  0  0  0  0  0  0  0
   34.4208  -24.1683   38.6291 C   0  0  0  0  0  0  0  0  0  0  0  0
   34.7512  -24.2075   41.0869 C   0  0  0  0  0  0  0  0  0  0  0  0
 20 21  1  0  0  0
 21 10  1  0  0  0
 10 11  2  0  0  0
 11 12  1  0  0  0
 12 13  2  0  0  0
 13 14  1  0  0  0
 14 15  2  0  0  0
 15  8  1  0  0  0
  8  1  1  0  0  0
  1  2  2  0  0  0
  2  3  1  0  0  0
  3  4  2  0  0  0
  4  5  1  0  0  0
  4  6  1  0  0  0
  6 22  1  0  0  0
 22 24  1  0  0  0
 24 25  2  0  0  0
 25 26  1  0  0  0
 26 27  2  0  0  0
 27 28  1  0  0  0
 28 29  2  0  0  0
 29 30  1  0  0  0
 30 31  2  0  0  0
 30 32  2  0  0  0
 30 33  1  0  0  0
 33 34  1  0  0  0
 33 35  1  0  0  0
  6  7  2  0  0  0
 12 16  1  0  0  0
 16 17  1  0  0  0
 16 18  1  0  0  0
 16 19  1  0  0  0
 15 10  1  0  0  0
  7  1  1  0  0  0
 29 24  1  0  0  0
  8  9  1  0  0  0
 22 23  1  0  0  0
M  END
> <minimizedAffinity>
-6.36576

> <CNNscore>
0.1357437372

> <CNNaffinity>
5.6068625450

> <CNN_VS>
0.7610964775

> <CNNaffinity_variance>
0.3410086036

$$$$
[H]c1nc(N([H])c2c([H])c([H])c(C(F)(F)F)c([H])c2OC([H])([H])[H])nc(N([H])c2c([H])c([H])c([H])c([H])c2S(=O)(=O)C([H])(C([H])([H])[H])C([H])([H])[H])c1Cl


 35 37  0  0  0  0  0  0  0  0999 V2000
   32.6937  -18.8080   35.1485 C   0  0  0  0  0  0  0  0  0  0  0  0
   31.5077  -19.1438   34.6709 N   0  0  0  0  0  0  0  0  0  0  0  0
   30.7547  -20.1447   35.0795 C   0  0  0  0  0  0  0  0  0  0  0  0
   31.2586  -20.9261   36.1117 C   0  0  0  0  0  0  0  0  0  0  0  0
   30.3649  -22.2933   36.7071 Cl  0  0  0  0  0  0  0  0  0  0  0  0
   32.5175  -20.6461   36.6926 C   0  0  0  0  0  0  0  0  0  0  0  0
   33.1590  -19.5870   36.1597 N   0  0  0  0  0  0  0  0  0  0  0  0
   33.5101  -17.7707   34.6226 N   0  0  0  0  0  0  0  0  0  0  0  0
   33.5807  -17.6996   33.5553 H   0  0  0  0  0  0  0  0  0  0  0  0
   35.6298  -17.0261   35.5358 C   0  0  0  0  0  0  0  0  0  0  0  0
   36.4289  -16.1330   36.1830 C   0  0  0  0  0  0  0  0  0  0  0  0
   35.8821  -14.9646   36.6752 C   0  0  0  0  0  0  0  0  0  0  0  0
   34.5676  -14.7077   36.5185 C   0  0  0  0  0  0  0  0  0  0  0  0
   33.7597  -15.6423   35.8472 C   0  0  0  0  0  0  0  0  0  0  0  0
   34.2526  -16.8166   35.3366 C   0  0  0  0  0  0  0  0  0  0  0  0
   36.7420  -13.9847   37.3568 C   0  0  0  0  0  0  0  0  0  0  0  0
   35.9876  -12.8532   37.6681 F   0  0  0  0  0  0  0  0  0  0  0  0
   37.2150  -14.4967   38.5320 F   0  0  0  0  0  0  0  0  0  0  0  0
   37.8522  -13.6550   36.5776 F   0  0  0  0  0  0  0  0  0  0  0  0
   37.4738  -18.3889   34.5861 C   0  0  0  0  0  0  0  0  0  0  0  0
   36.1772  -18.2043   35.0405 O   0  0  0  0  0  0  0  0  0  0  0  0
   32.9506  -21.4738   37.7261 N   0  0  0  0  0  0  0  0  0  0  0  0
   32.4681  -21.3052   38.6617 H   0  0  0  0  0  0  0  0  0  0  0  0
   33.9162  -22.4780   37.7257 C   0  0  0  0  0  0  0  0  0  0  0  0
   33.9297  -23.5082   36.7671 C   0  0  0  0  0  0  0  0  0  0  0  0
   34.8430  -24.5370   36.8568 C   0  0  0  0  0  0  0  0  0  0  0  0
   35.7482  -24.5595   37.8893 C   0  0  0  0  0  0  0  0  0  0  0  0
   35.7543  -23.5684   38.8265 C   0  0  0  0  0  0  0  0  0  0  0  0
   34.8407  -22.5057   38.7680 C   0  0  0  0  0  0  0  0  0  0  0  0
   35.0397  -21.2270   39.9040 S   0  0  0  0  0  0  0  0  0  0  0  0
   34.8411  -19.8848   39.1708 O   0  0  0  0  0  0  0  0  0  0  0  0
   36.3284  -21.0924   40.5871 O   0  0  0  0  0  0  0  0  0  0  0  0
   33.7373  -21.2412   41.1368 C   0  0  0  0  0  0  0  0  0  0  0  0
   33.3836  -22.6703   41.4729 C   0  0  0  0  0  0  0  0  0  0  0  0
   34.2041  -20.5175   42.3913 C   0  0  0  0  0  0  0  0  0  0  0  0
 20 21  1  0  0  0
 21 10  1  0  0  0
 10 11  2  0  0  0
 11 12  1  0  0  0
 12 13  2  0  0  0
 13 14  1  0  0  0
 14 15  2  0  0  0
 15  8  1  0  0  0
  8  1  1  0  0  0
  1  2  2  0  0  0
  2  3  1  0  0  0
  3  4  2  0  0  0
  4  5  1  0  0  0
  4  6  1  0  0  0
  6 22  1  0  0  0
 22 24  1  0  0  0
 24 25  2  0  0  0
 25 26  1  0  0  0
 26 27  2  0  0  0
 27 28  1  0  0  0
 28 29  2  0  0  0
 29 30  1  0  0  0
 30 31  2  0  0  0
 30 32  2  0  0  0
 30 33  1  0  0  0
 33 34  1  0  0  0
 33 35  1  0  0  0
  6  7  2  0  0  0
 12 16  1  0  0  0
 16 17  1  0  0  0
 16 18  1  0  0  0
 16 19  1  0  0  0
 15 10  1  0  0  0
  7  1  1  0  0  0
 29 24  1  0  0  0
  8  9  1  0  0  0
 22 23  1  0  0  0
M  END
> <minimizedAffinity>
-6.40667

> <CNNscore>
0.1251536906

> <CNNaffinity>
5.5519452095

> <CNN_VS>
0.6948464513

> <CNNaffinity_variance>
0.3358373642

$$$$
[H]c1nc(N([H])c2c([H])c([H])c(N3C([H])([H])C([H])([H])N(C([H])([H])[H])C([H])([H])C3([H])[H])c([H])c2OC([H])([H])[H])nc(N([H])c2c([H])c([H])c([H])c([H])c2S(=O)(=O)C([H])(C([H])([H])[H])C([H])([H])[H])c1Cl


 38 41  0  0  0  0  0  0  0  0999 V2000
   31.8895  -18.8297   35.2560 C   0  0  0  0  0  0  0  0  0  0  0  0
   30.6468  -18.8436   34.7746 N   0  0  0  0  0  0  0  0  0  0  0  0
   29.7231  -19.7553   35.0455 C   0  0  0  0  0  0  0  0  0  0  0  0
   30.0521  -20.7875   35.8954 C   0  0  0  0  0  0  0  0  0  0  0  0
   28.8796  -22.0270   36.2958 Cl  0  0  0  0  0  0  0  0  0  0  0  0
   31.3549  -20.8499   36.4536 C   0  0  0  0  0  0  0  0  0  0  0  0
   32.1680  -19.8737   36.0942 N   0  0  0  0  0  0  0  0  0  0  0  0
   32.8941  -17.8729   34.9858 N   0  0  0  0  0  0  0  0  0  0  0  0
   32.5157  -16.8675   34.8640 H   0  0  0  0  0  0  0  0  0  0  0  0
   35.1483  -17.2404   35.5489 C   0  0  0  0  0  0  0  0  0  0  0  0
   36.5030  -17.4338   35.4513 C   0  0  0  0  0  0  0  0  0  0  0  0
   37.0774  -18.4295   34.7155 C   0  0  0  0  0  0  0  0  0  0  0  0
   36.2119  -19.2716   34.0436 C   0  0  0  0  0  0  0  0  0  0  0  0
   34.8249  -19.0828   34.1363 C   0  0  0  0  0  0  0  0  0  0  0  0
   34.2613  -18.0942   34.8674 C   0  0  0  0  0  0  0  0  0  0  0  0
   38.4777  -18.5992   34.6541 N   0  0  0  0  0  0  0  0  0  0  0  0
   39.3064  -18.9301   35.8055 C   0  0  0  0  0  0  0  0  0  0  0  0
   40.2884  -20.0351   35.4701 C   0  0  0  0  0  0  0  0  0  0  0  0
   40.8445  -19.9534   34.1576 N   0  0  0  0  0  0  0  0  0  0  0  0
   41.8973  -18.9900   34.0243 C   0  0  0  0  0  0  0  0  0  0  0  0
   39.8162  -19.8086   33.1260 C   0  0  0  0  0  0  0  0  0  0  0  0
   39.1889  -18.4335   33.4088 C   0  0  0  0  0  0  0  0  0  0  0  0
   35.4470  -15.0921   36.6139 C   0  0  0  0  0  0  0  0  0  0  0  0
   34.6293  -16.2021   36.3196 O   0  0  0  0  0  0  0  0  0  0  0  0
   31.6418  -21.9154   37.3379 N   0  0  0  0  0  0  0  0  0  0  0  0
   31.2604  -21.7945   38.3233 H   0  0  0  0  0  0  0  0  0  0  0  0
   32.3452  -23.0785   36.9897 C   0  0  0  0  0  0  0  0  0  0  0  0
   31.8585  -24.1010   36.2067 C   0  0  0  0  0  0  0  0  0  0  0  0
   32.5846  -25.2753   35.9418 C   0  0  0  0  0  0  0  0  0  0  0  0
   33.8391  -25.3827   36.5048 C   0  0  0  0  0  0  0  0  0  0  0  0
   34.3480  -24.3781   37.2889 C   0  0  0  0  0  0  0  0  0  0  0  0
   33.6311  -23.2255   37.5455 C   0  0  0  0  0  0  0  0  0  0  0  0
   34.2942  -21.9300   38.4974 S   0  0  0  0  0  0  0  0  0  0  0  0
   33.3214  -21.3494   39.4820 O   0  0  0  0  0  0  0  0  0  0  0  0
   35.3673  -22.5891   39.3870 O   0  0  0  0  0  0  0  0  0  0  0  0
   35.1576  -20.7311   37.5519 C   0  0  0  0  0  0  0  0  0  0  0  0
   36.5403  -21.2710   37.1585 C   0  0  0  0  0  0  0  0  0  0  0  0
   35.4669  -19.4797   38.3823 C   0  0  0  0  0  0  0  0  0  0  0  0
 23 24  1  0  0  0
 24 10  1  0  0  0
 10 11  2  0  0  0
 11 12  1  0  0  0
 12 13  2  0  0  0
 13 14  1  0  0  0
 14 15  2  0  0  0
 15  8  1  0  0  0
  8  1  1  0  0  0
  1  2  2  0  0  0
  2  3  1  0  0  0
  3  4  2  0  0  0
  4  5  1  0  0  0
  4  6  1  0  0  0
  6 25  1  0  0  0
 25 27  1  0  0  0
 27 28  2  0  0  0
 28 29  1  0  0  0
 29 30  2  0  0  0
 30 31  1  0  0  0
 31 32  2  0  0  0
 32 33  1  0  0  0
 33 34  2  0  0  0
 33 35  2  0  0  0
 33 36  1  0  0  0
 36 37  1  0  0  0
 36 38  1  0  0  0
  6  7  2  0  0  0
 12 16  1  0  0  0
 16 17  1  0  0  0
 17 18  1  0  0  0
 18 19  1  0  0  0
 19 20  1  0  0  0
 19 21  1  0  0  0
 21 22  1  0  0  0
 15 10  1  0  0  0
  7  1  1  0  0  0
 22 16  1  0  0  0
 32 27  1  0  0  0
  8  9  1  0  0  0
 25 26  1  0  0  0
M  END
> <minimizedAffinity>
-6.45846

> <CNNscore>
0.5508166552

> <CNNaffinity>
6.5944023132

> <CNN_VS>
3.6323065758

> <CNNaffinity_variance>
0.5022679567

$$$$
[H]c1nc(N([H])c2c([H])c([H])c(N3C([H])([H])C([H])([H])N(C([H])([H])[H])C([H])([H])C3([H])[H])c([H])c2OC([H])([H])[H])nc(N([H])c2c([H])c([H])c([H])c([H])c2S(=O)(=O)C([H])(C([H])([H])[H])C([H])([H])[H])c1Cl


 38 41  0  0  0  0  0  0  0  0999 V2000
   32.0519  -18.7935   35.2296 C   0  0  0  0  0  0  0  0  0  0  0  0
   30.7845  -18.7438   34.8202 N   0  0  0  0  0  0  0  0  0  0  0  0
   29.8480  -19.6415   35.0940 C   0  0  0  0  0  0  0  0  0  0  0  0
   30.1898  -20.7286   35.8667 C   0  0  0  0  0  0  0  0  0  0  0  0
   29.0015  -21.9532   36.2663 Cl  0  0  0  0  0  0  0  0  0  0  0  0
   31.5189  -20.8605   36.3452 C   0  0  0  0  0  0  0  0  0  0  0  0
   32.3423  -19.8904   35.9930 N   0  0  0  0  0  0  0  0  0  0  0  0
   33.0707  -17.8533   34.9542 N   0  0  0  0  0  0  0  0  0  0  0  0
   32.7056  -16.8458   34.8113 H   0  0  0  0  0  0  0  0  0  0  0  0
   35.3160  -17.3512   35.6648 C   0  0  0  0  0  0  0  0  0  0  0  0
   36.6690  -17.5650   35.5887 C   0  0  0  0  0  0  0  0  0  0  0  0
   37.2485  -18.4773   34.7551 C   0  0  0  0  0  0  0  0  0  0  0  0
   36.3901  -19.2089   33.9566 C   0  0  0  0  0  0  0  0  0  0  0  0
   35.0050  -18.9981   34.0261 C   0  0  0  0  0  0  0  0  0  0  0  0
   34.4363  -18.0927   34.8545 C   0  0  0  0  0  0  0  0  0  0  0  0
   38.6462  -18.6732   34.7194 N   0  0  0  0  0  0  0  0  0  0  0  0
   39.4600  -18.9312   35.8997 C   0  0  0  0  0  0  0  0  0  0  0  0
   40.4263  -20.0734   35.6558 C   0  0  0  0  0  0  0  0  0  0  0  0
   40.9943  -20.0977   34.3461 N   0  0  0  0  0  0  0  0  0  0  0  0
   42.0639  -19.1636   34.1518 C   0  0  0  0  0  0  0  0  0  0  0  0
   39.9769  -20.0133   33.2971 C   0  0  0  0  0  0  0  0  0  0  0  0
   39.3701  -18.6113   33.4719 C   0  0  0  0  0  0  0  0  0  0  0  0
   34.7880  -15.0454   36.1579 C   0  0  0  0  0  0  0  0  0  0  0  0
   34.7915  -16.4023   36.5400 O   0  0  0  0  0  0  0  0  0  0  0  0
   31.8196  -21.9816   37.1529 N   0  0  0  0  0  0  0  0  0  0  0  0
   32.0012  -21.7598   38.1771 H   0  0  0  0  0  0  0  0  0  0  0  0
   31.8605  -23.3086   36.6988 C   0  0  0  0  0  0  0  0  0  0  0  0
   31.9929  -23.6986   35.3851 C   0  0  0  0  0  0  0  0  0  0  0  0
   31.9635  -25.0442   34.9787 C   0  0  0  0  0  0  0  0  0  0  0  0
   31.7922  -25.9969   35.9611 C   0  0  0  0  0  0  0  0  0  0  0  0
   31.6580  -25.6352   37.2780 C   0  0  0  0  0  0  0  0  0  0  0  0
   31.6887  -24.3117   37.6726 C   0  0  0  0  0  0  0  0  0  0  0  0
   31.5692  -23.8543   39.3461 S   0  0  0  0  0  0  0  0  0  0  0  0
   30.5874  -22.7472   39.5974 O   0  0  0  0  0  0  0  0  0  0  0  0
   30.9399  -25.0706   40.0546 O   0  0  0  0  0  0  0  0  0  0  0  0
   33.1231  -23.6242   40.1266 C   0  0  0  0  0  0  0  0  0  0  0  0
   33.3943  -22.1254   40.3216 C   0  0  0  0  0  0  0  0  0  0  0  0
   34.2745  -24.0996   39.2326 C   0  0  0  0  0  0  0  0  0  0  0  0
 23 24  1  0  0  0
 24 10  1  0  0  0
 10 11  2  0  0  0
 11 12  1  0  0  0
 12 13  2  0  0  0
 13 14  1  0  0  0
 14 15  2  0  0  0
 15  8  1  0  0  0
  8  1  1  0  0  0
  1  2  2  0  0  0
  2  3  1  0  0  0
  3  4  2  0  0  0
  4  5  1  0  0  0
  4  6  1  0  0  0
  6 25  1  0  0  0
 25 27  1  0  0  0
 27 28  2  0  0  0
 28 29  1  0  0  0
 29 30  2  0  0  0
 30 31  1  0  0  0
 31 32  2  0  0  0
 32 33  1  0  0  0
 33 34  2  0  0  0
 33 35  2  0  0  0
 33 36  1  0  0  0
 36 37  1  0  0  0
 36 38  1  0  0  0
  6  7  2  0  0  0
 12 16  1  0  0  0
 16 17  1  0  0  0
 17 18  1  0  0  0
 18 19  1  0  0  0
 19 20  1  0  0  0
 19 21  1  0  0  0
 21 22  1  0  0  0
 15 10  1  0  0  0
  7  1  1  0  0  0
 22 16  1  0  0  0
 32 27  1  0  0  0
  8  9  1  0  0  0
 25 26  1  0  0  0
M  END
> <minimizedAffinity>
-5.71751

> <CNNscore>
0.3931275606

> <CNNaffinity>
6.4012575150

> <CNN_VS>
2.5165107250

> <CNNaffinity_variance>
0.5917437673

$$$$
[H]c1nc(N([H])c2c([H])c([H])c(N3C([H])([H])C([H])([H])N(C([H])([H])[H])C([H])([H])C3([H])[H])c([H])c2OC([H])([H])[H])nc(N([H])c2c([H])c([H])c([H])c([H])c2S(=O)(=O)C([H])(C([H])([H])[H])C([H])([H])[H])c1Cl


 38 41  0  0  0  0  0  0  0  0999 V2000
   32.9438  -12.8552   37.9815 C   0  0  0  0  0  0  0  0  0  0  0  0
   32.2914  -12.2331   36.9998 N   0  0  0  0  0  0  0  0  0  0  0  0
   31.0220  -11.8519   37.0356 C   0  0  0  0  0  0  0  0  0  0  0  0
   30.2933  -12.1099   38.1749 C   0  0  0  0  0  0  0  0  0  0  0  0
   28.6106  -11.6338   38.2894 Cl  0  0  0  0  0  0  0  0  0  0  0  0
   30.9103  -12.7691   39.2693 C   0  0  0  0  0  0  0  0  0  0  0  0
   32.1787  -13.0889   39.0907 N   0  0  0  0  0  0  0  0  0  0  0  0
   34.2940  -13.2729   37.9723 N   0  0  0  0  0  0  0  0  0  0  0  0
   34.9482  -12.6429   38.5589 H   0  0  0  0  0  0  0  0  0  0  0  0
   36.2093  -14.6351   37.4485 C   0  0  0  0  0  0  0  0  0  0  0  0
   36.7717  -15.7092   36.8063 C   0  0  0  0  0  0  0  0  0  0  0  0
   36.0721  -16.5715   36.0126 C   0  0  0  0  0  0  0  0  0  0  0  0
   34.7216  -16.3153   35.8716 C   0  0  0  0  0  0  0  0  0  0  0  0
   34.1364  -15.2196   36.5236 C   0  0  0  0  0  0  0  0  0  0  0  0
   34.8347  -14.3685   37.3093 C   0  0  0  0  0  0  0  0  0  0  0  0
   36.6903  -17.6725   35.3809 N   0  0  0  0  0  0  0  0  0  0  0  0
   36.8206  -17.8115   33.9367 C   0  0  0  0  0  0  0  0  0  0  0  0
   38.2227  -18.2435   33.5556 C   0  0  0  0  0  0  0  0  0  0  0  0
   38.8117  -19.1915   34.4460 N   0  0  0  0  0  0  0  0  0  0  0  0
   38.3558  -20.5372   34.2573 C   0  0  0  0  0  0  0  0  0  0  0  0
   38.7362  -18.7633   35.8437 C   0  0  0  0  0  0  0  0  0  0  0  0
   37.2308  -18.7629   36.1574 C   0  0  0  0  0  0  0  0  0  0  0  0
   38.2385  -13.3628   37.7687 C   0  0  0  0  0  0  0  0  0  0  0  0
   36.9838  -13.7943   38.2451 O   0  0  0  0  0  0  0  0  0  0  0  0
   30.1300  -12.9942   40.4269 N   0  0  0  0  0  0  0  0  0  0  0  0
   30.2056  -12.2388   41.1718 H   0  0  0  0  0  0  0  0  0  0  0  0
   29.2820  -14.0953   40.6202 C   0  0  0  0  0  0  0  0  0  0  0  0
   29.3492  -15.2848   39.9302 C   0  0  0  0  0  0  0  0  0  0  0  0
   28.4320  -16.3333   40.1199 C   0  0  0  0  0  0  0  0  0  0  0  0
   27.4284  -16.1348   41.0449 C   0  0  0  0  0  0  0  0  0  0  0  0
   27.3389  -14.9588   41.7462 C   0  0  0  0  0  0  0  0  0  0  0  0
   28.2432  -13.9318   41.5572 C   0  0  0  0  0  0  0  0  0  0  0  0
   28.1611  -12.4606   42.4809 S   0  0  0  0  0  0  0  0  0  0  0  0
   27.1615  -12.5088   43.5994 O   0  0  0  0  0  0  0  0  0  0  0  0
   29.5184  -12.3611   43.2057 O   0  0  0  0  0  0  0  0  0  0  0  0
   28.0627  -11.0136   41.4944 C   0  0  0  0  0  0  0  0  0  0  0  0
   28.4261   -9.7810   42.3350 C   0  0  0  0  0  0  0  0  0  0  0  0
   26.6240  -10.7441   41.0378 C   0  0  0  0  0  0  0  0  0  0  0  0
 23 24  1  0  0  0
 24 10  1  0  0  0
 10 11  2  0  0  0
 11 12  1  0  0  0
 12 13  2  0  0  0
 13 14  1  0  0  0
 14 15  2  0  0  0
 15  8  1  0  0  0
  8  1  1  0  0  0
  1  2  2  0  0  0
  2  3  1  0  0  0
  3  4  2  0  0  0
  4  5  1  0  0  0
  4  6  1  0  0  0
  6 25  1  0  0  0
 25 27  1  0  0  0
 27 28  2  0  0  0
 28 29  1  0  0  0
 29 30  2  0  0  0
 30 31  1  0  0  0
 31 32  2  0  0  0
 32 33  1  0  0  0
 33 34  2  0  0  0
 33 35  2  0  0  0
 33 36  1  0  0  0
 36 37  1  0  0  0
 36 38  1  0  0  0
  6  7  2  0  0  0
 12 16  1  0  0  0
 16 17  1  0  0  0
 17 18  1  0  0  0
 18 19  1  0  0  0
 19 20  1  0  0  0
 19 21  1  0  0  0
 21 22  1  0  0  0
 15 10  1  0  0  0
  7  1  1  0  0  0
 22 16  1  0  0  0
 32 27  1  0  0  0
  8  9  1  0  0  0
 25 26  1  0  0  0
M  END
> <minimizedAffinity>
-7.35589

> <CNNscore>
0.3467863202

> <CNNaffinity>
6.8339014053

> <CNN_VS>
2.3699035645

> <CNNaffinity_variance>
0.1278037131

$$$$
[H]c1nc(N([H])c2c([H])c([H])c(N3C([H])([H])C([H])([H])N(C([H])([H])[H])C([H])([H])C3([H])[H])c([H])c2OC([H])([H])[H])nc(N([H])c2c([H])c([H])c([H])c([H])c2S(=O)(=O)C([H])(C([H])([H])[H])C([H])([H])[H])c1Cl


 38 41  0  0  0  0  0  0  0  0999 V2000
   32.7828  -12.2556   37.8070 C   0  0  0  0  0  0  0  0  0  0  0  0
   32.3207  -11.1549   37.2143 N   0  0  0  0  0  0  0  0  0  0  0  0
   31.0615  -10.7402   37.2283 C   0  0  0  0  0  0  0  0  0  0  0  0
   30.1315  -11.4951   37.9074 C   0  0  0  0  0  0  0  0  0  0  0  0
   28.4498  -11.0054   37.9658 Cl  0  0  0  0  0  0  0  0  0  0  0  0
   30.5379  -12.6834   38.5673 C   0  0  0  0  0  0  0  0  0  0  0  0
   31.8226  -12.9709   38.4677 N   0  0  0  0  0  0  0  0  0  0  0  0
   34.1170  -12.7223   37.8094 N   0  0  0  0  0  0  0  0  0  0  0  0
   34.8042  -12.0720   38.3325 H   0  0  0  0  0  0  0  0  0  0  0  0
   35.9894  -14.1378   37.2720 C   0  0  0  0  0  0  0  0  0  0  0  0
   36.5012  -15.2785   36.7071 C   0  0  0  0  0  0  0  0  0  0  0  0
   35.7408  -16.2241   36.0823 C   0  0  0  0  0  0  0  0  0  0  0  0
   34.3808  -15.9836   36.0358 C   0  0  0  0  0  0  0  0  0  0  0  0
   33.8470  -14.8204   36.6100 C   0  0  0  0  0  0  0  0  0  0  0  0
   34.6055  -13.8867   37.2282 C   0  0  0  0  0  0  0  0  0  0  0  0
   36.3094  -17.3905   35.5257 N   0  0  0  0  0  0  0  0  0  0  0  0
   36.4935  -17.6010   34.0961 C   0  0  0  0  0  0  0  0  0  0  0  0
   37.8782  -18.1416   33.7992 C   0  0  0  0  0  0  0  0  0  0  0  0
   38.3611  -19.0868   34.7542 N   0  0  0  0  0  0  0  0  0  0  0  0
   37.8228  -20.4062   34.5993 C   0  0  0  0  0  0  0  0  0  0  0  0
   38.2533  -18.5937   36.1282 C   0  0  0  0  0  0  0  0  0  0  0  0
   36.7392  -18.4794   36.3705 C   0  0  0  0  0  0  0  0  0  0  0  0
   38.2216  -13.3595   37.7722 C   0  0  0  0  0  0  0  0  0  0  0  0
   36.8249  -13.2133   37.8954 O   0  0  0  0  0  0  0  0  0  0  0  0
   29.5532  -13.4156   39.2702 N   0  0  0  0  0  0  0  0  0  0  0  0
   29.2151  -14.2966   38.7795 H   0  0  0  0  0  0  0  0  0  0  0  0
   29.0461  -13.0702   40.5320 C   0  0  0  0  0  0  0  0  0  0  0  0
   29.1077  -11.8181   41.1013 C   0  0  0  0  0  0  0  0  0  0  0  0
   28.6397  -11.5422   42.3979 C   0  0  0  0  0  0  0  0  0  0  0  0
   28.0995  -12.5918   43.1110 C   0  0  0  0  0  0  0  0  0  0  0  0
   28.0258  -13.8495   42.5671 C   0  0  0  0  0  0  0  0  0  0  0  0
   28.4861  -14.1155   41.2920 C   0  0  0  0  0  0  0  0  0  0  0  0
   28.3479  -15.6972   40.5823 S   0  0  0  0  0  0  0  0  0  0  0  0
   27.7031  -15.6930   39.2270 O   0  0  0  0  0  0  0  0  0  0  0  0
   29.7967  -16.1416   40.2979 O   0  0  0  0  0  0  0  0  0  0  0  0
   27.7052  -16.9074   41.6774 C   0  0  0  0  0  0  0  0  0  0  0  0
   28.8438  -17.5242   42.5026 C   0  0  0  0  0  0  0  0  0  0  0  0
   27.1113  -18.0959   40.9121 C   0  0  0  0  0  0  0  0  0  0  0  0
 23 24  1  0  0  0
 24 10  1  0  0  0
 10 11  2  0  0  0
 11 12  1  0  0  0
 12 13  2  0  0  0
 13 14  1  0  0  0
 14 15  2  0  0  0
 15  8  1  0  0  0
  8  1  1  0  0  0
  1  2  2  0  0  0
  2  3  1  0  0  0
  3  4  2  0  0  0
  4  5  1  0  0  0
  4  6  1  0  0  0
  6 25  1  0  0  0
 25 27  1  0  0  0
 27 28  2  0  0  0
 28 29  1  0  0  0
 29 30  2  0  0  0
 30 31  1  0  0  0
 31 32  2  0  0  0
 32 33  1  0  0  0
 33 34  2  0  0  0
 33 35  2  0  0  0
 33 36  1  0  0  0
 36 37  1  0  0  0
 36 38  1  0  0  0
  6  7  2  0  0  0
 12 16  1  0  0  0
 16 17  1  0  0  0
 17 18  1  0  0  0
 18 19  1  0  0  0
 19 20  1  0  0  0
 19 21  1  0  0  0
 21 22  1  0  0  0
 15 10  1  0  0  0
  7  1  1  0  0  0
 22 16  1  0  0  0
 32 27  1  0  0  0
  8  9  1  0  0  0
 25 26  1  0  0  0
M  END
> <minimizedAffinity>
-7.76067

> <CNNscore>
0.3354301453

> <CNNaffinity>
6.8716592789

> <CNN_VS>
2.3049616814

> <CNNaffinity_variance>
0.1592129171

$$$$
[H]c1nc(N([H])c2c([H])c([H])c(N3C([H])([H])C([H])([H])N(C([H])([H])[H])C([H])([H])C3([H])[H])c([H])c2OC([H])([H])[H])nc(N([H])c2c([H])c([H])c([H])c([H])c2S(=O)(=O)C([H])(C([H])([H])[H])C([H])([H])[H])c1Cl


 38 41  0  0  0  0  0  0  0  0999 V2000
   33.8761  -14.5397   36.5674 C   0  0  0  0  0  0  0  0  0  0  0  0
   34.6743  -13.5656   36.1312 N   0  0  0  0  0  0  0  0  0  0  0  0
   34.6216  -12.2958   36.5091 C   0  0  0  0  0  0  0  0  0  0  0  0
   33.6681  -11.9266   37.4312 C   0  0  0  0  0  0  0  0  0  0  0  0
   33.5425  -10.2650   37.9740 Cl  0  0  0  0  0  0  0  0  0  0  0  0
   32.7763  -12.9012   37.9483 C   0  0  0  0  0  0  0  0  0  0  0  0
   32.9469  -14.1241   37.4807 N   0  0  0  0  0  0  0  0  0  0  0  0
   33.9083  -15.8997   36.1837 N   0  0  0  0  0  0  0  0  0  0  0  0
   32.9357  -16.3717   36.1730 H   0  0  0  0  0  0  0  0  0  0  0  0
   36.1456  -16.6364   36.6836 C   0  0  0  0  0  0  0  0  0  0  0  0
   37.2610  -17.3693   36.3657 C   0  0  0  0  0  0  0  0  0  0  0  0
   37.3687  -18.1423   35.2461 C   0  0  0  0  0  0  0  0  0  0  0  0
   36.2701  -18.1625   34.4080 C   0  0  0  0  0  0  0  0  0  0  0  0
   35.1245  -17.4167   34.7233 C   0  0  0  0  0  0  0  0  0  0  0  0
   35.0235  -16.6525   35.8347 C   0  0  0  0  0  0  0  0  0  0  0  0
   38.5323  -18.8910   34.9652 N   0  0  0  0  0  0  0  0  0  0  0  0
   39.6904  -18.9521   35.8467 C   0  0  0  0  0  0  0  0  0  0  0  0
   40.1729  -20.3794   36.0136 C   0  0  0  0  0  0  0  0  0  0  0  0
   40.1048  -21.1691   34.8261 N   0  0  0  0  0  0  0  0  0  0  0  0
   41.1698  -20.9274   33.8976 C   0  0  0  0  0  0  0  0  0  0  0  0
   38.7853  -21.1118   34.1950 C   0  0  0  0  0  0  0  0  0  0  0  0
   38.6468  -19.6490   33.7420 C   0  0  0  0  0  0  0  0  0  0  0  0
   37.0867  -14.8780   38.0478 C   0  0  0  0  0  0  0  0  0  0  0  0
   36.1038  -15.8680   37.8451 O   0  0  0  0  0  0  0  0  0  0  0  0
   31.8274  -12.4814   38.9090 N   0  0  0  0  0  0  0  0  0  0  0  0
   32.1816  -12.4674   39.9118 H   0  0  0  0  0  0  0  0  0  0  0  0
   30.5163  -12.0760   38.6165 C   0  0  0  0  0  0  0  0  0  0  0  0
   30.1510  -11.2400   37.5853 C   0  0  0  0  0  0  0  0  0  0  0  0
   28.8275  -10.8143   37.3765 C   0  0  0  0  0  0  0  0  0  0  0  0
   27.8710  -11.2690   38.2600 C   0  0  0  0  0  0  0  0  0  0  0  0
   28.2083  -12.1031   39.2960 C   0  0  0  0  0  0  0  0  0  0  0  0
   29.5101  -12.5196   39.4966 C   0  0  0  0  0  0  0  0  0  0  0  0
   29.9312  -13.6165   40.7787 S   0  0  0  0  0  0  0  0  0  0  0  0
   30.4623  -14.9332   40.2923 O   0  0  0  0  0  0  0  0  0  0  0  0
   31.1409  -12.9705   41.4835 O   0  0  0  0  0  0  0  0  0  0  0  0
   28.6997  -13.7555   42.0201 C   0  0  0  0  0  0  0  0  0  0  0  0
   28.7294  -12.5176   42.9282 C   0  0  0  0  0  0  0  0  0  0  0  0
   28.9915  -14.9234   42.9699 C   0  0  0  0  0  0  0  0  0  0  0  0
 23 24  1  0  0  0
 24 10  1  0  0  0
 10 11  2  0  0  0
 11 12  1  0  0  0
 12 13  2  0  0  0
 13 14  1  0  0  0
 14 15  2  0  0  0
 15  8  1  0  0  0
  8  1  1  0  0  0
  1  2  2  0  0  0
  2  3  1  0  0  0
  3  4  2  0  0  0
  4  5  1  0  0  0
  4  6  1  0  0  0
  6 25  1  0  0  0
 25 27  1  0  0  0
 27 28  2  0  0  0
 28 29  1  0  0  0
 29 30  2  0  0  0
 30 31  1  0  0  0
 31 32  2  0  0  0
 32 33  1  0  0  0
 33 34  2  0  0  0
 33 35  2  0  0  0
 33 36  1  0  0  0
 36 37  1  0  0  0
 36 38  1  0  0  0
  6  7  2  0  0  0
 12 16  1  0  0  0
 16 17  1  0  0  0
 17 18  1  0  0  0
 18 19  1  0  0  0
 19 20  1  0  0  0
 19 21  1  0  0  0
 21 22  1  0  0  0
 15 10  1  0  0  0
  7  1  1  0  0  0
 22 16  1  0  0  0
 32 27  1  0  0  0
  8  9  1  0  0  0
 25 26  1  0  0  0
M  END
> <minimizedAffinity>
-7.85573

> <CNNscore>
0.2794857919

> <CNNaffinity>
6.7520127296

> <CNN_VS>
1.8870916367

> <CNNaffinity_variance>
0.1584857404

$$$$
[H]c1nc(N([H])c2c([H])c([H])c(N3C([H])([H])C([H])([H])N(C([H])([H])[H])C([H])([H])C3([H])[H])c([H])c2OC([H])([H])[H])nc(N([H])c2c([H])c([H])c([H])c([H])c2S(=O)(=O)C([H])(C([H])([H])[H])C([H])([H])[H])c1Cl


 38 41  0  0  0  0  0  0  0  0999 V2000
   32.0947  -18.7593   35.1393 C   0  0  0  0  0  0  0  0  0  0  0  0
   30.8074  -18.6531   34.8106 N   0  0  0  0  0  0  0  0  0  0  0  0
   29.8661  -19.5490   35.0737 C   0  0  0  0  0  0  0  0  0  0  0  0
   30.2246  -20.6972   35.7437 C   0  0  0  0  0  0  0  0  0  0  0  0
   29.0310  -21.9231   36.1231 Cl  0  0  0  0  0  0  0  0  0  0  0  0
   31.5753  -20.8917   36.1314 C   0  0  0  0  0  0  0  0  0  0  0  0
   32.4011  -19.9155   35.8023 N   0  0  0  0  0  0  0  0  0  0  0  0
   33.1191  -17.8227   34.8728 N   0  0  0  0  0  0  0  0  0  0  0  0
   32.7576  -16.8162   34.7141 H   0  0  0  0  0  0  0  0  0  0  0  0
   35.3546  -17.2952   35.5956 C   0  0  0  0  0  0  0  0  0  0  0  0
   36.7087  -17.5104   35.5445 C   0  0  0  0  0  0  0  0  0  0  0  0
   37.2993  -18.4498   34.7498 C   0  0  0  0  0  0  0  0  0  0  0  0
   36.4518  -19.2084   33.9651 C   0  0  0  0  0  0  0  0  0  0  0  0
   35.0658  -18.9965   34.0093 C   0  0  0  0  0  0  0  0  0  0  0  0
   34.4860  -18.0642   34.7992 C   0  0  0  0  0  0  0  0  0  0  0  0
   38.6975  -18.6456   34.7390 N   0  0  0  0  0  0  0  0  0  0  0  0
   39.4779  -18.9898   35.9199 C   0  0  0  0  0  0  0  0  0  0  0  0
   40.4504  -20.1135   35.6213 C   0  0  0  0  0  0  0  0  0  0  0  0
   41.0548  -20.0448   34.3297 N   0  0  0  0  0  0  0  0  0  0  0  0
   42.1296  -19.1014   34.2331 C   0  0  0  0  0  0  0  0  0  0  0  0
   40.0672  -19.8827   33.2615 C   0  0  0  0  0  0  0  0  0  0  0  0
   39.4560  -18.4956   33.5199 C   0  0  0  0  0  0  0  0  0  0  0  0
   35.6325  -15.2406   36.8367 C   0  0  0  0  0  0  0  0  0  0  0  0
   34.8184  -16.3178   36.4314 O   0  0  0  0  0  0  0  0  0  0  0  0
   31.8940  -22.0755   36.8362 N   0  0  0  0  0  0  0  0  0  0  0  0
   31.0561  -22.6125   37.2113 H   0  0  0  0  0  0  0  0  0  0  0  0
   33.1937  -22.5669   37.0311 C   0  0  0  0  0  0  0  0  0  0  0  0
   34.2682  -21.8280   37.4726 C   0  0  0  0  0  0  0  0  0  0  0  0
   35.5656  -22.3568   37.5890 C   0  0  0  0  0  0  0  0  0  0  0  0
   35.7427  -23.6787   37.2376 C   0  0  0  0  0  0  0  0  0  0  0  0
   34.6886  -24.4375   36.7948 C   0  0  0  0  0  0  0  0  0  0  0  0
   33.4152  -23.9137   36.6831 C   0  0  0  0  0  0  0  0  0  0  0  0
   32.0686  -24.8872   36.1700 S   0  0  0  0  0  0  0  0  0  0  0  0
   31.1964  -24.2157   35.1497 O   0  0  0  0  0  0  0  0  0  0  0  0
   32.6926  -26.0679   35.3993 O   0  0  0  0  0  0  0  0  0  0  0  0
   31.1849  -25.6222   37.4951 C   0  0  0  0  0  0  0  0  0  0  0  0
   29.7367  -25.1118   37.5055 C   0  0  0  0  0  0  0  0  0  0  0  0
   31.7458  -25.1844   38.8533 C   0  0  0  0  0  0  0  0  0  0  0  0
 23 24  1  0  0  0
 24 10  1  0  0  0
 10 11  2  0  0  0
 11 12  1  0  0  0
 12 13  2  0  0  0
 13 14  1  0  0  0
 14 15  2  0  0  0
 15  8  1  0  0  0
  8  1  1  0  0  0
  1  2  2  0  0  0
  2  3  1  0  0  0
  3  4  2  0  0  0
  4  5  1  0  0  0
  4  6  1  0  0  0
  6 25  1  0  0  0
 25 27  1  0  0  0
 27 28  2  0  0  0
 28 29  1  0  0  0
 29 30  2  0  0  0
 30 31  1  0  0  0
 31 32  2  0  0  0
 32 33  1  0  0  0
 33 34  2  0  0  0
 33 35  2  0  0  0
 33 36  1  0  0  0
 36 37  1  0  0  0
 36 38  1  0  0  0
  6  7  2  0  0  0
 12 16  1  0  0  0
 16 17  1  0  0  0
 17 18  1  0  0  0
 18 19  1  0  0  0
 19 20  1  0  0  0
 19 21  1  0  0  0
 21 22  1  0  0  0
 15 10  1  0  0  0
  7  1  1  0  0  0
 22 16  1  0  0  0
 32 27  1  0  0  0
  8  9  1  0  0  0
 25 26  1  0  0  0
M  END
> <minimizedAffinity>
-5.88091

> <CNNscore>
0.2714044154

> <CNNaffinity>
6.2434949875

> <CNN_VS>
1.6945121288

> <CNNaffinity_variance>
0.5939142108

$$$$
[H]c1nc(N([H])c2c([H])c([H])c(N3C([H])([H])C([H])([H])N(C([H])([H])[H])C([H])([H])C3([H])[H])c([H])c2OC([H])([H])[H])nc(N([H])c2c([H])c([H])c([H])c([H])c2S(=O)(=O)C([H])(C([H])([H])[H])C([H])([H])[H])c1Cl


 38 41  0  0  0  0  0  0  0  0999 V2000
   33.7776  -14.4825   36.5054 C   0  0  0  0  0  0  0  0  0  0  0  0
   34.6043  -13.4962   36.1587 N   0  0  0  0  0  0  0  0  0  0  0  0
   34.5694  -12.2572   36.6294 C   0  0  0  0  0  0  0  0  0  0  0  0
   33.6044  -11.9370   37.5579 C   0  0  0  0  0  0  0  0  0  0  0  0
   33.5010  -10.3180   38.2210 Cl  0  0  0  0  0  0  0  0  0  0  0  0
   32.6825  -12.9278   37.9833 C   0  0  0  0  0  0  0  0  0  0  0  0
   32.8381  -14.1159   37.4290 N   0  0  0  0  0  0  0  0  0  0  0  0
   33.7904  -15.8106   36.0217 N   0  0  0  0  0  0  0  0  0  0  0  0
   32.8197  -16.1687   35.7084 H   0  0  0  0  0  0  0  0  0  0  0  0
   34.8690  -17.6694   34.9355 C   0  0  0  0  0  0  0  0  0  0  0  0
   35.9350  -18.5235   34.8073 C   0  0  0  0  0  0  0  0  0  0  0  0
   37.0527  -18.4663   35.5885 C   0  0  0  0  0  0  0  0  0  0  0  0
   37.0751  -17.4777   36.5538 C   0  0  0  0  0  0  0  0  0  0  0  0
   35.9904  -16.5992   36.6937 C   0  0  0  0  0  0  0  0  0  0  0  0
   34.8853  -16.6605   35.9163 C   0  0  0  0  0  0  0  0  0  0  0  0
   38.1326  -19.3586   35.4124 N   0  0  0  0  0  0  0  0  0  0  0  0
   38.3586  -20.1294   34.1972 C   0  0  0  0  0  0  0  0  0  0  0  0
   39.8118  -20.0608   33.7713 C   0  0  0  0  0  0  0  0  0  0  0  0
   40.7461  -20.0906   34.8505 N   0  0  0  0  0  0  0  0  0  0  0  0
   40.9763  -21.3972   35.3928 C   0  0  0  0  0  0  0  0  0  0  0  0
   40.4351  -19.1004   35.8827 C   0  0  0  0  0  0  0  0  0  0  0  0
   39.0940  -19.5735   36.4676 C   0  0  0  0  0  0  0  0  0  0  0  0
   32.8456  -18.8373   34.3182 C   0  0  0  0  0  0  0  0  0  0  0  0
   33.7581  -17.7845   34.1024 O   0  0  0  0  0  0  0  0  0  0  0  0
   31.7223  -12.5601   38.9542 N   0  0  0  0  0  0  0  0  0  0  0  0
   32.0598  -12.6160   39.9613 H   0  0  0  0  0  0  0  0  0  0  0  0
   30.4210  -12.1204   38.6679 C   0  0  0  0  0  0  0  0  0  0  0  0
   30.0623  -11.3333   37.5968 C   0  0  0  0  0  0  0  0  0  0  0  0
   28.7514  -10.8678   37.3931 C   0  0  0  0  0  0  0  0  0  0  0  0
   27.8007  -11.2303   38.3243 C   0  0  0  0  0  0  0  0  0  0  0  0
   28.1316  -12.0142   39.4008 C   0  0  0  0  0  0  0  0  0  0  0  0
   29.4210  -12.4701   39.5962 C   0  0  0  0  0  0  0  0  0  0  0  0
   29.8316  -13.5047   40.9323 S   0  0  0  0  0  0  0  0  0  0  0  0
   31.1223  -13.1351   41.6034 O   0  0  0  0  0  0  0  0  0  0  0  0
   28.7642  -13.2203   42.0080 O   0  0  0  0  0  0  0  0  0  0  0  0
   29.6749  -15.2146   40.5737 C   0  0  0  0  0  0  0  0  0  0  0  0
   28.3333  -15.4826   39.8766 C   0  0  0  0  0  0  0  0  0  0  0  0
   29.6038  -16.0514   41.8565 C   0  0  0  0  0  0  0  0  0  0  0  0
 23 24  1  0  0  0
 24 10  1  0  0  0
 10 11  2  0  0  0
 11 12  1  0  0  0
 12 13  2  0  0  0
 13 14  1  0  0  0
 14 15  2  0  0  0
 15  8  1  0  0  0
  8  1  1  0  0  0
  1  2  2  0  0  0
  2  3  1  0  0  0
  3  4  2  0  0  0
  4  5  1  0  0  0
  4  6  1  0  0  0
  6 25  1  0  0  0
 25 27  1  0  0  0
 27 28  2  0  0  0
 28 29  1  0  0  0
 29 30  2  0  0  0
 30 31  1  0  0  0
 31 32  2  0  0  0
 32 33  1  0  0  0
 33 34  2  0  0  0
 33 35  2  0  0  0
 33 36  1  0  0  0
 36 37  1  0  0  0
 36 38  1  0  0  0
  6  7  2  0  0  0
 12 16  1  0  0  0
 16 17  1  0  0  0
 17 18  1  0  0  0
 18 19  1  0  0  0
 19 20  1  0  0  0
 19 21  1  0  0  0
 21 22  1  0  0  0
 15 10  1  0  0  0
  7  1  1  0  0  0
 22 16  1  0  0  0
 32 27  1  0  0  0
  8  9  1  0  0  0
 25 26  1  0  0  0
M  END
> <minimizedAffinity>
-8.38541

> <CNNscore>
0.2420845032

> <CNNaffinity>
6.8230676651

> <CNN_VS>
1.6517589092

> <CNNaffinity_variance>
0.0588143766

$$$$
[H]c1nc(N([H])c2c([H])c([H])c(N3C([H])([H])C([H])([H])N(C([H])([H])[H])C([H])([H])C3([H])[H])c([H])c2OC([H])([H])[H])nc(N([H])c2c([H])c([H])c([H])c([H])c2S(=O)(=O)C([H])(C([H])([H])[H])C([H])([H])[H])c1Cl


 38 41  0  0  0  0  0  0  0  0999 V2000
   37.0537  -18.0434   36.8741 C   0  0  0  0  0  0  0  0  0  0  0  0
   36.0084  -18.6282   37.4585 N   0  0  0  0  0  0  0  0  0  0  0  0
   36.0080  -19.8306   38.0173 C   0  0  0  0  0  0  0  0  0  0  0  0
   37.1771  -20.5579   38.0055 C   0  0  0  0  0  0  0  0  0  0  0  0
   37.2469  -22.1540   38.7257 Cl  0  0  0  0  0  0  0  0  0  0  0  0
   38.3391  -20.0102   37.4034 C   0  0  0  0  0  0  0  0  0  0  0  0
   38.1901  -18.8041   36.8876 N   0  0  0  0  0  0  0  0  0  0  0  0
   37.0842  -16.7654   36.2712 N   0  0  0  0  0  0  0  0  0  0  0  0
   37.9712  -16.5843   35.6803 H   0  0  0  0  0  0  0  0  0  0  0  0
   36.4239  -14.6011   37.0946 C   0  0  0  0  0  0  0  0  0  0  0  0
   35.4958  -13.5964   37.2032 C   0  0  0  0  0  0  0  0  0  0  0  0
   34.2563  -13.6422   36.6337 C   0  0  0  0  0  0  0  0  0  0  0  0
   33.9548  -14.7827   35.9140 C   0  0  0  0  0  0  0  0  0  0  0  0
   34.8962  -15.8161   35.7968 C   0  0  0  0  0  0  0  0  0  0  0  0
   36.1234  -15.7651   36.3632 C   0  0  0  0  0  0  0  0  0  0  0  0
   33.3370  -12.5781   36.7609 N   0  0  0  0  0  0  0  0  0  0  0  0
   31.9092  -12.7036   36.5006 C   0  0  0  0  0  0  0  0  0  0  0  0
   31.0959  -12.0500   37.6001 C   0  0  0  0  0  0  0  0  0  0  0  0
   31.6518  -10.8354   38.1043 N   0  0  0  0  0  0  0  0  0  0  0  0
   31.4234   -9.6932   37.2690 C   0  0  0  0  0  0  0  0  0  0  0  0
   33.0581  -10.9825   38.4829 C   0  0  0  0  0  0  0  0  0  0  0  0
   33.7795  -11.2614   37.1540 C   0  0  0  0  0  0  0  0  0  0  0  0
   38.4411  -13.3275   37.4786 C   0  0  0  0  0  0  0  0  0  0  0  0
   37.6725  -14.4879   37.7024 O   0  0  0  0  0  0  0  0  0  0  0  0
   39.5227  -20.7834   37.4334 N   0  0  0  0  0  0  0  0  0  0  0  0
   39.4201  -21.7739   37.0596 H   0  0  0  0  0  0  0  0  0  0  0  0
   40.7696  -20.3230   37.8831 C   0  0  0  0  0  0  0  0  0  0  0  0
   41.0575  -19.9284   39.1703 C   0  0  0  0  0  0  0  0  0  0  0  0
   42.3089  -19.4138   39.5520 C   0  0  0  0  0  0  0  0  0  0  0  0
   43.2742  -19.3095   38.5726 C   0  0  0  0  0  0  0  0  0  0  0  0
   43.0134  -19.6959   37.2820 C   0  0  0  0  0  0  0  0  0  0  0  0
   41.7825  -20.2020   36.9119 C   0  0  0  0  0  0  0  0  0  0  0  0
   41.4661  -20.7390   35.2884 S   0  0  0  0  0  0  0  0  0  0  0  0
   42.6826  -21.2597   34.5802 O   0  0  0  0  0  0  0  0  0  0  0  0
   40.5693  -21.9840   35.4409 O   0  0  0  0  0  0  0  0  0  0  0  0
   40.5177  -19.6056   34.3434 C   0  0  0  0  0  0  0  0  0  0  0  0
   39.3167  -20.3257   33.7132 C   0  0  0  0  0  0  0  0  0  0  0  0
   41.3103  -19.0777   33.1417 C   0  0  0  0  0  0  0  0  0  0  0  0
 23 24  1  0  0  0
 24 10  1  0  0  0
 10 11  2  0  0  0
 11 12  1  0  0  0
 12 13  2  0  0  0
 13 14  1  0  0  0
 14 15  2  0  0  0
 15  8  1  0  0  0
  8  1  1  0  0  0
  1  2  2  0  0  0
  2  3  1  0  0  0
  3  4  2  0  0  0
  4  5  1  0  0  0
  4  6  1  0  0  0
  6 25  1  0  0  0
 25 27  1  0  0  0
 27 28  2  0  0  0
 28 29  1  0  0  0
 29 30  2  0  0  0
 30 31  1  0  0  0
 31 32  2  0  0  0
 32 33  1  0  0  0
 33 34  2  0  0  0
 33 35  2  0  0  0
 33 36  1  0  0  0
 36 37  1  0  0  0
 36 38  1  0  0  0
  6  7  2  0  0  0
 12 16  1  0  0  0
 16 17  1  0  0  0
 17 18  1  0  0  0
 18 19  1  0  0  0
 19 20  1  0  0  0
 19 21  1  0  0  0
 21 22  1  0  0  0
 15 10  1  0  0  0
  7  1  1  0  0  0
 22 16  1  0  0  0
 32 27  1  0  0  0
  8  9  1  0  0  0
 25 26  1  0  0  0
M  END
> <minimizedAffinity>
-6.62634

> <CNNscore>
0.2228650451

> <CNNaffinity>
6.5154128075

> <CNN_VS>
1.4520577192

> <CNNaffinity_variance>
0.0780510306

$$$$
[H]c1nc(N([H])c2c([H])c([H])c(N3C([H])([H])C([H])([H])N(C([H])([H])[H])C([H])([H])C3([H])[H])c([H])c2OC([H])([H])[H])nc(N([H])c2c([H])c([H])c([H])c([H])c2S(=O)(=O)C([H])(C([H])([H])[H])C([H])([H])[H])c1Cl


 38 41  0  0  0  0  0  0  0  0999 V2000
   36.6064  -17.2536   36.5451 C   0  0  0  0  0  0  0  0  0  0  0  0
   35.6510  -18.0232   37.0658 N   0  0  0  0  0  0  0  0  0  0  0  0
   35.8218  -19.2448   37.5520 C   0  0  0  0  0  0  0  0  0  0  0  0
   37.0870  -19.7875   37.5280 C   0  0  0  0  0  0  0  0  0  0  0  0
   37.3835  -21.3975   38.1537 Cl  0  0  0  0  0  0  0  0  0  0  0  0
   38.1637  -19.0361   36.9905 C   0  0  0  0  0  0  0  0  0  0  0  0
   37.8439  -17.8357   36.5435 N   0  0  0  0  0  0  0  0  0  0  0  0
   36.4548  -15.9500   36.0202 N   0  0  0  0  0  0  0  0  0  0  0  0
   37.1743  -15.7043   35.2516 H   0  0  0  0  0  0  0  0  0  0  0  0
   35.8330  -14.0716   37.3924 C   0  0  0  0  0  0  0  0  0  0  0  0
   34.9207  -13.1200   37.7727 C   0  0  0  0  0  0  0  0  0  0  0  0
   33.6761  -12.9992   37.2259 C   0  0  0  0  0  0  0  0  0  0  0  0
   33.3521  -13.9059   36.2347 C   0  0  0  0  0  0  0  0  0  0  0  0
   34.2772  -14.8831   35.8383 C   0  0  0  0  0  0  0  0  0  0  0  0
   35.5096  -14.9979   36.3837 C   0  0  0  0  0  0  0  0  0  0  0  0
   32.7736  -11.9953   37.6396 N   0  0  0  0  0  0  0  0  0  0  0  0
   33.1342  -10.5921   37.7913 C   0  0  0  0  0  0  0  0  0  0  0  0
   32.0925   -9.6908   37.1586 C   0  0  0  0  0  0  0  0  0  0  0  0
   30.7456  -10.1312   37.3325 N   0  0  0  0  0  0  0  0  0  0  0  0
   30.1955   -9.8444   38.6246 C   0  0  0  0  0  0  0  0  0  0  0  0
   30.5631  -11.5301   36.9419 C   0  0  0  0  0  0  0  0  0  0  0  0
   31.4035  -12.3188   37.9598 C   0  0  0  0  0  0  0  0  0  0  0  0
   38.1295  -13.3272   37.4977 C   0  0  0  0  0  0  0  0  0  0  0  0
   37.0881  -14.1376   37.9939 O   0  0  0  0  0  0  0  0  0  0  0  0
   39.4495  -19.6246   37.0059 N   0  0  0  0  0  0  0  0  0  0  0  0
   39.9731  -19.5324   37.9271 H   0  0  0  0  0  0  0  0  0  0  0  0
   40.0283  -20.3139   35.9295 C   0  0  0  0  0  0  0  0  0  0  0  0
   39.3501  -21.1118   35.0357 C   0  0  0  0  0  0  0  0  0  0  0  0
   39.9909  -21.8318   34.0122 C   0  0  0  0  0  0  0  0  0  0  0  0
   41.3622  -21.7163   33.9221 C   0  0  0  0  0  0  0  0  0  0  0  0
   42.0623  -20.9275   34.8000 C   0  0  0  0  0  0  0  0  0  0  0  0
   41.4281  -20.2211   35.8036 C   0  0  0  0  0  0  0  0  0  0  0  0
   42.3076  -19.1818   36.8855 S   0  0  0  0  0  0  0  0  0  0  0  0
   41.9121  -19.3404   38.3246 O   0  0  0  0  0  0  0  0  0  0  0  0
   43.7617  -19.6934   36.8461 O   0  0  0  0  0  0  0  0  0  0  0  0
   42.3948  -17.5149   36.3464 C   0  0  0  0  0  0  0  0  0  0  0  0
   42.7855  -17.4644   34.8622 C   0  0  0  0  0  0  0  0  0  0  0  0
   43.5217  -16.7551   37.0561 C   0  0  0  0  0  0  0  0  0  0  0  0
 23 24  1  0  0  0
 24 10  1  0  0  0
 10 11  2  0  0  0
 11 12  1  0  0  0
 12 13  2  0  0  0
 13 14  1  0  0  0
 14 15  2  0  0  0
 15  8  1  0  0  0
  8  1  1  0  0  0
  1  2  2  0  0  0
  2  3  1  0  0  0
  3  4  2  0  0  0
  4  5  1  0  0  0
  4  6  1  0  0  0
  6 25  1  0  0  0
 25 27  1  0  0  0
 27 28  2  0  0  0
 28 29  1  0  0  0
 29 30  2  0  0  0
 30 31  1  0  0  0
 31 32  2  0  0  0
 32 33  1  0  0  0
 33 34  2  0  0  0
 33 35  2  0  0  0
 33 36  1  0  0  0
 36 37  1  0  0  0
 36 38  1  0  0  0
  6  7  2  0  0  0
 12 16  1  0  0  0
 16 17  1  0  0  0
 17 18  1  0  0  0
 18 19  1  0  0  0
 19 20  1  0  0  0
 19 21  1  0  0  0
 21 22  1  0  0  0
 15 10  1  0  0  0
  7  1  1  0  0  0
 22 16  1  0  0  0
 32 27  1  0  0  0
  8  9  1  0  0  0
 25 26  1  0  0  0
M  END
> <minimizedAffinity>
-6.87252

> <CNNscore>
0.2100383043

> <CNNaffinity>
6.6411910057

> <CNN_VS>
1.3949044943

> <CNNaffinity_variance>
0.1254430711

$$$$
[H]c1nc(N([H])c2c([H])c([H])c(N3C([H])([H])C([H])([H])N(C(=O)C([H])([H])[H])C([H])([H])C3([H])[H])c([H])c2OC([H])([H])[H])nc(N([H])c2c([H])c([H])c([H])c([H])c2S(=O)(=O)C([H])(C([H])([H])[H])C([H])([H])[H])c1Cl


 40 43  0  0  0  0  0  0  0  0999 V2000
   33.8014  -14.3994   36.5201 C   0  0  0  0  0  0  0  0  0  0  0  0
   34.6126  -13.4530   36.0847 N   0  0  0  0  0  0  0  0  0  0  0  0
   34.5280  -12.1899   36.5066 C   0  0  0  0  0  0  0  0  0  0  0  0
   33.5622  -11.8464   37.4313 C   0  0  0  0  0  0  0  0  0  0  0  0
   33.4927  -10.1748   37.9544 Cl  0  0  0  0  0  0  0  0  0  0  0  0
   32.6723  -12.8194   37.9271 C   0  0  0  0  0  0  0  0  0  0  0  0
   32.8599  -14.0312   37.4312 N   0  0  0  0  0  0  0  0  0  0  0  0
   33.8388  -15.7570   36.1043 N   0  0  0  0  0  0  0  0  0  0  0  0
   32.8744  -16.2312   36.0005 H   0  0  0  0  0  0  0  0  0  0  0  0
   36.0589  -16.4384   36.6618 C   0  0  0  0  0  0  0  0  0  0  0  0
   37.1796  -17.1904   36.4165 C   0  0  0  0  0  0  0  0  0  0  0  0
   37.2890  -18.0646   35.3622 C   0  0  0  0  0  0  0  0  0  0  0  0
   36.2027  -18.1680   34.5286 C   0  0  0  0  0  0  0  0  0  0  0  0
   35.0430  -17.3974   34.7724 C   0  0  0  0  0  0  0  0  0  0  0  0
   34.9492  -16.5365   35.8202 C   0  0  0  0  0  0  0  0  0  0  0  0
   38.4549  -18.8225   35.1661 N   0  0  0  0  0  0  0  0  0  0  0  0
   38.7450  -19.4230   33.8803 C   0  0  0  0  0  0  0  0  0  0  0  0
   38.5931  -20.9295   34.1176 C   0  0  0  0  0  0  0  0  0  0  0  0
   39.5475  -21.3357   35.1411 N   0  0  0  0  0  0  0  0  0  0  0  0
   39.9417  -20.4926   36.2288 C   0  0  0  0  0  0  0  0  0  0  0  0
   39.4546  -19.0910   36.1997 C   0  0  0  0  0  0  0  0  0  0  0  0
   40.1036  -22.6266   35.0414 C   0  0  0  0  0  0  0  0  0  0  0  0
   41.0727  -23.0962   36.0458 C   0  0  0  0  0  0  0  0  0  0  0  0
   39.7793  -23.3786   34.1041 O   0  0  0  0  0  0  0  0  0  0  0  0
   37.0500  -14.7344   38.1250 C   0  0  0  0  0  0  0  0  0  0  0  0
   36.0173  -15.5852   37.7324 O   0  0  0  0  0  0  0  0  0  0  0  0
   31.7034  -12.4263   38.8698 N   0  0  0  0  0  0  0  0  0  0  0  0
   32.0850  -12.4179   39.8831 H   0  0  0  0  0  0  0  0  0  0  0  0
   30.3685  -12.0398   38.6773 C   0  0  0  0  0  0  0  0  0  0  0  0
   29.9723  -11.3187   37.5821 C   0  0  0  0  0  0  0  0  0  0  0  0
   28.6246  -10.9320   37.4780 C   0  0  0  0  0  0  0  0  0  0  0  0
   27.6876  -11.2463   38.4276 C   0  0  0  0  0  0  0  0  0  0  0  0
   28.1035  -11.9695   39.5166 C   0  0  0  0  0  0  0  0  0  0  0  0
   29.4355  -12.3764   39.6620 C   0  0  0  0  0  0  0  0  0  0  0  0
   29.8895  -13.3300   41.0471 S   0  0  0  0  0  0  0  0  0  0  0  0
   28.9768  -12.9262   42.1989 O   0  0  0  0  0  0  0  0  0  0  0  0
   31.2849  -13.0189   41.5315 O   0  0  0  0  0  0  0  0  0  0  0  0
   29.7211  -15.0637   40.8152 C   0  0  0  0  0  0  0  0  0  0  0  0
   28.4719  -15.3651   39.9704 C   0  0  0  0  0  0  0  0  0  0  0  0
   29.4378  -15.6623   42.1972 C   0  0  0  0  0  0  0  0  0  0  0  0
 25 26  1  0  0  0
 26 10  1  0  0  0
 10 11  2  0  0  0
 11 12  1  0  0  0
 12 13  2  0  0  0
 13 14  1  0  0  0
 14 15  2  0  0  0
 15  8  1  0  0  0
  8  1  1  0  0  0
  1  2  2  0  0  0
  2  3  1  0  0  0
  3  4  2  0  0  0
  4  5  1  0  0  0
  4  6  1  0  0  0
  6 27  1  0  0  0
 27 29  1  0  0  0
 29 30  2  0  0  0
 30 31  1  0  0  0
 31 32  2  0  0  0
 32 33  1  0  0  0
 33 34  2  0  0  0
 34 35  1  0  0  0
 35 36  2  0  0  0
 35 37  2  0  0  0
 35 38  1  0  0  0
 38 39  1  0  0  0
 38 40  1  0  0  0
  6  7  2  0  0  0
 12 16  1  0  0  0
 16 17  1  0  0  0
 17 18  1  0  0  0
 18 19  1  0  0  0
 19 20  1  0  0  0
 20 21  1  0  0  0
 19 22  1  0  0  0
 22 23  1  0  0  0
 22 24  2  0  0  0
 15 10  1  0  0  0
  7  1  1  0  0  0
 21 16  1  0  0  0
 34 29  1  0  0  0
  8  9  1  0  0  0
 27 28  1  0  0  0
M  END
> <minimizedAffinity>
-8.47002

> <CNNscore>
0.3552272618

> <CNNaffinity>
6.9319677353

> <CNN_VS>
2.4624238014

> <CNNaffinity_variance>
0.2652193308

$$$$
[H]c1nc(N([H])c2c([H])c([H])c(N3C([H])([H])C([H])([H])N(C(=O)C([H])([H])[H])C([H])([H])C3([H])[H])c([H])c2OC([H])([H])[H])nc(N([H])c2c([H])c([H])c([H])c([H])c2S(=O)(=O)C([H])(C([H])([H])[H])C([H])([H])[H])c1Cl


 40 43  0  0  0  0  0  0  0  0999 V2000
   34.2027  -11.9388   37.3000 C   0  0  0  0  0  0  0  0  0  0  0  0
   34.3263  -10.6319   37.1577 N   0  0  0  0  0  0  0  0  0  0  0  0
   33.3025   -9.7944   37.3333 C   0  0  0  0  0  0  0  0  0  0  0  0
   32.0641  -10.2988   37.6762 C   0  0  0  0  0  0  0  0  0  0  0  0
   30.7519   -9.1575   37.8964 Cl  0  0  0  0  0  0  0  0  0  0  0  0
   31.8800  -11.6857   37.8403 C   0  0  0  0  0  0  0  0  0  0  0  0
   32.9704  -12.4067   37.6387 N   0  0  0  0  0  0  0  0  0  0  0  0
   35.2522  -12.8789   37.1207 N   0  0  0  0  0  0  0  0  0  0  0  0
   36.2478  -12.4874   37.2658 H   0  0  0  0  0  0  0  0  0  0  0  0
   36.1367  -15.0933   37.2556 C   0  0  0  0  0  0  0  0  0  0  0  0
   36.0792  -16.4284   36.9462 C   0  0  0  0  0  0  0  0  0  0  0  0
   35.0853  -16.9854   36.1780 C   0  0  0  0  0  0  0  0  0  0  0  0
   34.1141  -16.1347   35.7107 C   0  0  0  0  0  0  0  0  0  0  0  0
   34.1642  -14.7571   36.0237 C   0  0  0  0  0  0  0  0  0  0  0  0
   35.1538  -14.2203   36.7854 C   0  0  0  0  0  0  0  0  0  0  0  0
   35.0659  -18.3627   35.9042 N   0  0  0  0  0  0  0  0  0  0  0  0
   34.8614  -18.8508   34.5559 C   0  0  0  0  0  0  0  0  0  0  0  0
   33.4758  -19.5047   34.5908 C   0  0  0  0  0  0  0  0  0  0  0  0
   33.4980  -20.5852   35.5683 N   0  0  0  0  0  0  0  0  0  0  0  0
   34.2845  -20.5489   36.7639 C   0  0  0  0  0  0  0  0  0  0  0  0
   35.2271  -19.4119   36.9107 C   0  0  0  0  0  0  0  0  0  0  0  0
   32.7005  -21.7178   35.3096 C   0  0  0  0  0  0  0  0  0  0  0  0
   32.6788  -22.8423   36.2602 C   0  0  0  0  0  0  0  0  0  0  0  0
   32.0090  -21.7752   34.2762 O   0  0  0  0  0  0  0  0  0  0  0  0
   38.0688  -13.6260   37.6314 C   0  0  0  0  0  0  0  0  0  0  0  0
   37.1570  -14.6040   38.0273 O   0  0  0  0  0  0  0  0  0  0  0  0
   30.6009  -12.1573   38.1914 N   0  0  0  0  0  0  0  0  0  0  0  0
   29.9494  -12.2767   37.3348 H   0  0  0  0  0  0  0  0  0  0  0  0
   30.0845  -12.4992   39.4504 C   0  0  0  0  0  0  0  0  0  0  0  0
   30.8318  -13.1661   40.3848 C   0  0  0  0  0  0  0  0  0  0  0  0
   30.2330  -13.5111   41.6091 C   0  0  0  0  0  0  0  0  0  0  0  0
   28.9304  -13.2082   41.9090 C   0  0  0  0  0  0  0  0  0  0  0  0
   28.1985  -12.5395   40.9608 C   0  0  0  0  0  0  0  0  0  0  0  0
   28.7534  -12.1753   39.7276 C   0  0  0  0  0  0  0  0  0  0  0  0
   27.7833  -11.2890   38.5844 S   0  0  0  0  0  0  0  0  0  0  0  0
   26.4628  -12.0343   38.4310 O   0  0  0  0  0  0  0  0  0  0  0  0
   28.3851  -11.2788   37.2001 O   0  0  0  0  0  0  0  0  0  0  0  0
   27.4132   -9.6431   39.0762 C   0  0  0  0  0  0  0  0  0  0  0  0
   28.4225   -9.1682   40.1349 C   0  0  0  0  0  0  0  0  0  0  0  0
   26.0595   -9.6967   39.7926 C   0  0  0  0  0  0  0  0  0  0  0  0
 25 26  1  0  0  0
 26 10  1  0  0  0
 10 11  2  0  0  0
 11 12  1  0  0  0
 12 13  2  0  0  0
 13 14  1  0  0  0
 14 15  2  0  0  0
 15  8  1  0  0  0
  8  1  1  0  0  0
  1  2  2  0  0  0
  2  3  1  0  0  0
  3  4  2  0  0  0
  4  5  1  0  0  0
  4  6  1  0  0  0
  6 27  1  0  0  0
 27 29  1  0  0  0
 29 30  2  0  0  0
 30 31  1  0  0  0
 31 32  2  0  0  0
 32 33  1  0  0  0
 33 34  2  0  0  0
 34 35  1  0  0  0
 35 36  2  0  0  0
 35 37  2  0  0  0
 35 38  1  0  0  0
 38 39  1  0  0  0
 38 40  1  0  0  0
  6  7  2  0  0  0
 12 16  1  0  0  0
 16 17  1  0  0  0
 17 18  1  0  0  0
 18 19  1  0  0  0
 19 20  1  0  0  0
 20 21  1  0  0  0
 19 22  1  0  0  0
 22 23  1  0  0  0
 22 24  2  0  0  0
 15 10  1  0  0  0
  7  1  1  0  0  0
 21 16  1  0  0  0
 34 29  1  0  0  0
  8  9  1  0  0  0
 27 28  1  0  0  0
M  END
> <minimizedAffinity>
-9.39271

> <CNNscore>
0.3252797723

> <CNNaffinity>
7.3292531967

> <CNN_VS>
2.3840577602

> <CNNaffinity_variance>
0.0615575202

$$$$
[H]c1nc(N([H])c2c([H])c([H])c(N3C([H])([H])C([H])([H])N(C(=O)C([H])([H])[H])C([H])([H])C3([H])[H])c([H])c2OC([H])([H])[H])nc(N([H])c2c([H])c([H])c([H])c([H])c2S(=O)(=O)C([H])(C([H])([H])[H])C([H])([H])[H])c1Cl


 40 43  0  0  0  0  0  0  0  0999 V2000
   32.8271  -12.4750   37.9068 C   0  0  0  0  0  0  0  0  0  0  0  0
   32.5542  -11.3210   37.3262 N   0  0  0  0  0  0  0  0  0  0  0  0
   31.3370  -10.7752   37.3589 C   0  0  0  0  0  0  0  0  0  0  0  0
   30.3172  -11.4298   38.0201 C   0  0  0  0  0  0  0  0  0  0  0  0
   28.7370  -10.6712   38.0352 Cl  0  0  0  0  0  0  0  0  0  0  0  0
   30.5568  -12.6638   38.6559 C   0  0  0  0  0  0  0  0  0  0  0  0
   31.8022  -13.0968   38.5511 N   0  0  0  0  0  0  0  0  0  0  0  0
   34.0988  -13.1075   37.9007 N   0  0  0  0  0  0  0  0  0  0  0  0
   34.8443  -12.6435   38.5290 H   0  0  0  0  0  0  0  0  0  0  0  0
   35.8229  -14.6466   37.2984 C   0  0  0  0  0  0  0  0  0  0  0  0
   36.2566  -15.7539   36.6148 C   0  0  0  0  0  0  0  0  0  0  0  0
   35.4437  -16.5108   35.8059 C   0  0  0  0  0  0  0  0  0  0  0  0
   34.1344  -16.1117   35.6968 C   0  0  0  0  0  0  0  0  0  0  0  0
   33.6774  -14.9719   36.3970 C   0  0  0  0  0  0  0  0  0  0  0  0
   34.4935  -14.2328   37.1942 C   0  0  0  0  0  0  0  0  0  0  0  0
   35.9360  -17.6453   35.1404 N   0  0  0  0  0  0  0  0  0  0  0  0
   35.4409  -18.9687   35.4592 C   0  0  0  0  0  0  0  0  0  0  0  0
   36.6223  -19.6659   36.1424 C   0  0  0  0  0  0  0  0  0  0  0  0
   37.7390  -19.7081   35.2072 N   0  0  0  0  0  0  0  0  0  0  0  0
   37.9954  -18.6838   34.2406 C   0  0  0  0  0  0  0  0  0  0  0  0
   36.9711  -17.6181   34.1071 C   0  0  0  0  0  0  0  0  0  0  0  0
   38.6016  -20.8207   35.2683 C   0  0  0  0  0  0  0  0  0  0  0  0
   39.7492  -20.9207   34.3508 C   0  0  0  0  0  0  0  0  0  0  0  0
   38.3996  -21.7262   36.0981 O   0  0  0  0  0  0  0  0  0  0  0  0
   37.9792  -13.5542   37.7272 C   0  0  0  0  0  0  0  0  0  0  0  0
   36.6879  -13.9369   38.0883 O   0  0  0  0  0  0  0  0  0  0  0  0
   29.4888  -13.2968   39.3197 N   0  0  0  0  0  0  0  0  0  0  0  0
   29.0426  -14.0897   38.7327 H   0  0  0  0  0  0  0  0  0  0  0  0
   28.9597  -13.0606   40.5975 C   0  0  0  0  0  0  0  0  0  0  0  0
   28.9776  -11.8173   41.1722 C   0  0  0  0  0  0  0  0  0  0  0  0
   28.4658  -11.6658   42.4728 C   0  0  0  0  0  0  0  0  0  0  0  0
   27.9483  -12.7112   43.1926 C   0  0  0  0  0  0  0  0  0  0  0  0
   27.9384  -13.9482   42.5998 C   0  0  0  0  0  0  0  0  0  0  0  0
   28.4371  -14.1460   41.3062 C   0  0  0  0  0  0  0  0  0  0  0  0
   28.3553  -15.7336   40.5942 S   0  0  0  0  0  0  0  0  0  0  0  0
   29.7857  -16.1970   40.3452 O   0  0  0  0  0  0  0  0  0  0  0  0
   27.7087  -15.7234   39.2302 O   0  0  0  0  0  0  0  0  0  0  0  0
   27.5726  -16.9381   41.6063 C   0  0  0  0  0  0  0  0  0  0  0  0
   28.5878  -17.5407   42.5919 C   0  0  0  0  0  0  0  0  0  0  0  0
   27.1662  -18.0884   40.6789 C   0  0  0  0  0  0  0  0  0  0  0  0
 25 26  1  0  0  0
 26 10  1  0  0  0
 10 11  2  0  0  0
 11 12  1  0  0  0
 12 13  2  0  0  0
 13 14  1  0  0  0
 14 15  2  0  0  0
 15  8  1  0  0  0
  8  1  1  0  0  0
  1  2  2  0  0  0
  2  3  1  0  0  0
  3  4  2  0  0  0
  4  5  1  0  0  0
  4  6  1  0  0  0
  6 27  1  0  0  0
 27 29  1  0  0  0
 29 30  2  0  0  0
 30 31  1  0  0  0
 31 32  2  0  0  0
 32 33  1  0  0  0
 33 34  2  0  0  0
 34 35  1  0  0  0
 35 36  2  0  0  0
 35 37  2  0  0  0
 35 38  1  0  0  0
 38 39  1  0  0  0
 38 40  1  0  0  0
  6  7  2  0  0  0
 12 16  1  0  0  0
 16 17  1  0  0  0
 17 18  1  0  0  0
 18 19  1  0  0  0
 19 20  1  0  0  0
 20 21  1  0  0  0
 19 22  1  0  0  0
 22 23  1  0  0  0
 22 24  2  0  0  0
 15 10  1  0  0  0
  7  1  1  0  0  0
 21 16  1  0  0  0
 34 29  1  0  0  0
  8  9  1  0  0  0
 27 28  1  0  0  0
M  END
> <minimizedAffinity>
-8.21468

> <CNNscore>
0.3017350435

> <CNNaffinity>
6.8447313309

> <CNN_VS>
2.0652952194

> <CNNaffinity_variance>
0.1821868718

$$$$
[H]c1nc(N([H])c2c([H])c([H])c(N3C([H])([H])C([H])([H])N(C(=O)C([H])([H])[H])C([H])([H])C3([H])[H])c([H])c2OC([H])([H])[H])nc(N([H])c2c([H])c([H])c([H])c([H])c2S(=O)(=O)C([H])(C([H])([H])[H])C([H])([H])[H])c1Cl


 40 43  0  0  0  0  0  0  0  0999 V2000
   33.6693  -14.4504   36.5370 C   0  0  0  0  0  0  0  0  0  0  0  0
   34.5316  -13.5614   36.0792 N   0  0  0  0  0  0  0  0  0  0  0  0
   34.5222  -12.2873   36.4755 C   0  0  0  0  0  0  0  0  0  0  0  0
   33.5826  -11.8701   37.3968 C   0  0  0  0  0  0  0  0  0  0  0  0
   33.6125  -10.1870   37.8859 Cl  0  0  0  0  0  0  0  0  0  0  0  0
   32.6407  -12.7797   37.9160 C   0  0  0  0  0  0  0  0  0  0  0  0
   32.7554  -14.0101   37.4442 N   0  0  0  0  0  0  0  0  0  0  0  0
   33.6262  -15.8160   36.1488 N   0  0  0  0  0  0  0  0  0  0  0  0
   32.6465  -16.2691   36.1753 H   0  0  0  0  0  0  0  0  0  0  0  0
   35.8525  -16.6069   36.4979 C   0  0  0  0  0  0  0  0  0  0  0  0
   36.9170  -17.3920   36.1343 C   0  0  0  0  0  0  0  0  0  0  0  0
   36.9044  -18.2263   35.0426 C   0  0  0  0  0  0  0  0  0  0  0  0
   35.7516  -18.2526   34.2970 C   0  0  0  0  0  0  0  0  0  0  0  0
   34.6490  -17.4473   34.6630 C   0  0  0  0  0  0  0  0  0  0  0  0
   34.6760  -16.6267   35.7464 C   0  0  0  0  0  0  0  0  0  0  0  0
   38.0175  -19.0211   34.7241 N   0  0  0  0  0  0  0  0  0  0  0  0
   38.1948  -20.3281   35.3228 C   0  0  0  0  0  0  0  0  0  0  0  0
   39.4027  -20.1636   36.2517 C   0  0  0  0  0  0  0  0  0  0  0  0
   40.5529  -19.7664   35.4499 N   0  0  0  0  0  0  0  0  0  0  0  0
   40.4522  -18.9453   34.2816 C   0  0  0  0  0  0  0  0  0  0  0  0
   39.0838  -18.6264   33.8037 C   0  0  0  0  0  0  0  0  0  0  0  0
   41.8226  -20.2224   35.8567 C   0  0  0  0  0  0  0  0  0  0  0  0
   43.0240  -19.8538   35.0890 C   0  0  0  0  0  0  0  0  0  0  0  0
   41.9373  -20.9395   36.8677 O   0  0  0  0  0  0  0  0  0  0  0  0
   37.0258  -14.9978   37.9337 C   0  0  0  0  0  0  0  0  0  0  0  0
   35.9330  -15.7970   37.5995 O   0  0  0  0  0  0  0  0  0  0  0  0
   31.7009  -12.3124   38.8543 N   0  0  0  0  0  0  0  0  0  0  0  0
   32.1239  -12.1873   39.8431 H   0  0  0  0  0  0  0  0  0  0  0  0
   30.3486  -11.9808   38.6817 C   0  0  0  0  0  0  0  0  0  0  0  0
   29.9257  -11.1612   37.6690 C   0  0  0  0  0  0  0  0  0  0  0  0
   28.5595  -10.8404   37.5840 C   0  0  0  0  0  0  0  0  0  0  0  0
   27.6300  -11.3136   38.4732 C   0  0  0  0  0  0  0  0  0  0  0  0
   28.0728  -12.1335   39.4799 C   0  0  0  0  0  0  0  0  0  0  0  0
   29.4240  -12.4801   39.6033 C   0  0  0  0  0  0  0  0  0  0  0  0
   29.9143  -13.5606   40.8784 S   0  0  0  0  0  0  0  0  0  0  0  0
   31.1849  -12.9904   41.4972 O   0  0  0  0  0  0  0  0  0  0  0  0
   30.3124  -14.9220   40.3620 O   0  0  0  0  0  0  0  0  0  0  0  0
   28.7300  -13.7431   42.1637 C   0  0  0  0  0  0  0  0  0  0  0  0
   28.5338  -12.4048   42.8956 C   0  0  0  0  0  0  0  0  0  0  0  0
   29.3508  -14.6900   43.1965 C   0  0  0  0  0  0  0  0  0  0  0  0
 25 26  1  0  0  0
 26 10  1  0  0  0
 10 11  2  0  0  0
 11 12  1  0  0  0
 12 13  2  0  0  0
 13 14  1  0  0  0
 14 15  2  0  0  0
 15  8  1  0  0  0
  8  1  1  0  0  0
  1  2  2  0  0  0
  2  3  1  0  0  0
  3  4  2  0  0  0
  4  5  1  0  0  0
  4  6  1  0  0  0
  6 27  1  0  0  0
 27 29  1  0  0  0
 29 30  2  0  0  0
 30 31  1  0  0  0
 31 32  2  0  0  0
 32 33  1  0  0  0
 33 34  2  0  0  0
 34 35  1  0  0  0
 35 36  2  0  0  0
 35 37  2  0  0  0
 35 38  1  0  0  0
 38 39  1  0  0  0
 38 40  1  0  0  0
  6  7  2  0  0  0
 12 16  1  0  0  0
 16 17  1  0  0  0
 17 18  1  0  0  0
 18 19  1  0  0  0
 19 20  1  0  0  0
 20 21  1  0  0  0
 19 22  1  0  0  0
 22 23  1  0  0  0
 22 24  2  0  0  0
 15 10  1  0  0  0
  7  1  1  0  0  0
 21 16  1  0  0  0
 34 29  1  0  0  0
  8  9  1  0  0  0
 27 28  1  0  0  0
M  END
> <minimizedAffinity>
-8.40627

> <CNNscore>
0.2988330722

> <CNNaffinity>
6.8381261826

> <CNN_VS>
2.0434582233

> <CNNaffinity_variance>
0.1670399755

$$$$
[H]c1nc(N([H])c2c([H])c([H])c(N3C([H])([H])C([H])([H])N(C(=O)C([H])([H])[H])C([H])([H])C3([H])[H])c([H])c2OC([H])([H])[H])nc(N([H])c2c([H])c([H])c([H])c([H])c2S(=O)(=O)C([H])(C([H])([H])[H])C([H])([H])[H])c1Cl


 40 43  0  0  0  0  0  0  0  0999 V2000
   32.8445  -12.8464   37.9694 C   0  0  0  0  0  0  0  0  0  0  0  0
   32.1485  -12.1738   37.0713 N   0  0  0  0  0  0  0  0  0  0  0  0
   30.8763  -11.8234   37.2696 C   0  0  0  0  0  0  0  0  0  0  0  0
   30.2531  -12.1701   38.4516 C   0  0  0  0  0  0  0  0  0  0  0  0
   28.5819  -11.6859   38.6642 Cl  0  0  0  0  0  0  0  0  0  0  0  0
   30.9523  -12.8876   39.4420 C   0  0  0  0  0  0  0  0  0  0  0  0
   32.2040  -13.1738   39.1247 N   0  0  0  0  0  0  0  0  0  0  0  0
   34.1967  -13.2519   37.8129 N   0  0  0  0  0  0  0  0  0  0  0  0
   34.9269  -12.5945   38.2604 H   0  0  0  0  0  0  0  0  0  0  0  0
   36.0431  -14.6742   37.2916 C   0  0  0  0  0  0  0  0  0  0  0  0
   36.5693  -15.7744   36.6637 C   0  0  0  0  0  0  0  0  0  0  0  0
   35.8258  -16.6322   35.8894 C   0  0  0  0  0  0  0  0  0  0  0  0
   34.4895  -16.3454   35.7567 C   0  0  0  0  0  0  0  0  0  0  0  0
   33.9373  -15.2140   36.3995 C   0  0  0  0  0  0  0  0  0  0  0  0
   34.6856  -14.3743   37.1629 C   0  0  0  0  0  0  0  0  0  0  0  0
   36.4124  -17.7538   35.2812 N   0  0  0  0  0  0  0  0  0  0  0  0
   36.5724  -18.9964   36.0082 C   0  0  0  0  0  0  0  0  0  0  0  0
   38.0859  -19.1316   36.2081 C   0  0  0  0  0  0  0  0  0  0  0  0
   38.7239  -19.1756   34.8987 N   0  0  0  0  0  0  0  0  0  0  0  0
   38.2298  -18.4655   33.7581 C   0  0  0  0  0  0  0  0  0  0  0  0
   36.9198  -17.7845   33.9095 C   0  0  0  0  0  0  0  0  0  0  0  0
   39.8850  -19.9624   34.7630 C   0  0  0  0  0  0  0  0  0  0  0  0
   40.5766  -20.0462   33.4655 C   0  0  0  0  0  0  0  0  0  0  0  0
   40.3341  -20.5914   35.7387 O   0  0  0  0  0  0  0  0  0  0  0  0
   38.1426  -13.4766   37.7218 C   0  0  0  0  0  0  0  0  0  0  0  0
   36.8425  -13.8602   38.0493 O   0  0  0  0  0  0  0  0  0  0  0  0
   30.2791  -13.2197   40.6330 N   0  0  0  0  0  0  0  0  0  0  0  0
   30.5452  -12.5715   41.4585 H   0  0  0  0  0  0  0  0  0  0  0  0
   29.3320  -14.2253   40.8784 C   0  0  0  0  0  0  0  0  0  0  0  0
   29.3046  -15.3887   40.1558 C   0  0  0  0  0  0  0  0  0  0  0  0
   28.3001  -16.3329   40.4315 C   0  0  0  0  0  0  0  0  0  0  0  0
   27.3444  -16.1390   41.3947 C   0  0  0  0  0  0  0  0  0  0  0  0
   27.3888  -14.9682   42.1081 C   0  0  0  0  0  0  0  0  0  0  0  0
   28.3713  -13.9995   41.8681 C   0  0  0  0  0  0  0  0  0  0  0  0
   28.3983  -12.5536   42.8390 S   0  0  0  0  0  0  0  0  0  0  0  0
   28.8723  -11.4128   41.9465 O   0  0  0  0  0  0  0  0  0  0  0  0
   29.4159  -12.6229   43.9518 O   0  0  0  0  0  0  0  0  0  0  0  0
   26.8347  -12.0999   43.5000 C   0  0  0  0  0  0  0  0  0  0  0  0
   26.1675  -11.0443   42.6024 C   0  0  0  0  0  0  0  0  0  0  0  0
   27.1133  -11.3922   44.8305 C   0  0  0  0  0  0  0  0  0  0  0  0
 25 26  1  0  0  0
 26 10  1  0  0  0
 10 11  2  0  0  0
 11 12  1  0  0  0
 12 13  2  0  0  0
 13 14  1  0  0  0
 14 15  2  0  0  0
 15  8  1  0  0  0
  8  1  1  0  0  0
  1  2  2  0  0  0
  2  3  1  0  0  0
  3  4  2  0  0  0
  4  5  1  0  0  0
  4  6  1  0  0  0
  6 27  1  0  0  0
 27 29  1  0  0  0
 29 30  2  0  0  0
 30 31  1  0  0  0
 31 32  2  0  0  0
 32 33  1  0  0  0
 33 34  2  0  0  0
 34 35  1  0  0  0
 35 36  2  0  0  0
 35 37  2  0  0  0
 35 38  1  0  0  0
 38 39  1  0  0  0
 38 40  1  0  0  0
  6  7  2  0  0  0
 12 16  1  0  0  0
 16 17  1  0  0  0
 17 18  1  0  0  0
 18 19  1  0  0  0
 19 20  1  0  0  0
 20 21  1  0  0  0
 19 22  1  0  0  0
 22 23  1  0  0  0
 22 24  2  0  0  0
 15 10  1  0  0  0
  7  1  1  0  0  0
 21 16  1  0  0  0
 34 29  1  0  0  0
  8  9  1  0  0  0
 27 28  1  0  0  0
M  END
> <minimizedAffinity>
-8.19471

> <CNNscore>
0.2842271328

> <CNNaffinity>
6.6156973839

> <CNN_VS>
1.8803607225

> <CNNaffinity_variance>
0.2870348990

$$$$
[H]c1nc(N([H])c2c([H])c([H])c(N3C([H])([H])C([H])([H])N(C(=O)C([H])([H])[H])C([H])([H])C3([H])[H])c([H])c2OC([H])([H])[H])nc(N([H])c2c([H])c([H])c([H])c([H])c2S(=O)(=O)C([H])(C([H])([H])[H])C([H])([H])[H])c1Cl


 40 43  0  0  0  0  0  0  0  0999 V2000
   33.3392  -18.5615   35.3416 C   0  0  0  0  0  0  0  0  0  0  0  0
   32.2567  -18.4161   34.5997 N   0  0  0  0  0  0  0  0  0  0  0  0
   31.2040  -19.2294   34.7052 C   0  0  0  0  0  0  0  0  0  0  0  0
   31.2345  -20.2640   35.6186 C   0  0  0  0  0  0  0  0  0  0  0  0
   29.8267  -21.3036   35.7194 Cl  0  0  0  0  0  0  0  0  0  0  0  0
   32.3661  -20.4617   36.4339 C   0  0  0  0  0  0  0  0  0  0  0  0
   33.3402  -19.5897   36.2332 N   0  0  0  0  0  0  0  0  0  0  0  0
   34.4908  -17.7332   35.2704 N   0  0  0  0  0  0  0  0  0  0  0  0
   34.2957  -16.6723   35.3177 H   0  0  0  0  0  0  0  0  0  0  0  0
   36.6851  -17.8429   36.2067 C   0  0  0  0  0  0  0  0  0  0  0  0
   38.0061  -18.2037   36.1271 C   0  0  0  0  0  0  0  0  0  0  0  0
   38.5532  -18.8392   35.0386 C   0  0  0  0  0  0  0  0  0  0  0  0
   37.7072  -19.1131   33.9922 C   0  0  0  0  0  0  0  0  0  0  0  0
   36.3443  -18.7453   34.0641 C   0  0  0  0  0  0  0  0  0  0  0  0
   35.8170  -18.1171   35.1482 C   0  0  0  0  0  0  0  0  0  0  0  0
   39.9100  -19.2005   35.0156 N   0  0  0  0  0  0  0  0  0  0  0  0
   40.6294  -19.3126   33.7634 C   0  0  0  0  0  0  0  0  0  0  0  0
   40.9040  -20.8128   33.6118 C   0  0  0  0  0  0  0  0  0  0  0  0
   41.7047  -21.2541   34.7465 N   0  0  0  0  0  0  0  0  0  0  0  0
   41.5868  -20.6938   36.0585 C   0  0  0  0  0  0  0  0  0  0  0  0
   40.7083  -19.5063   36.2027 C   0  0  0  0  0  0  0  0  0  0  0  0
   42.6397  -22.2850   34.5256 C   0  0  0  0  0  0  0  0  0  0  0  0
   43.4776  -22.7759   35.6327 C   0  0  0  0  0  0  0  0  0  0  0  0
   42.7635  -22.7877   33.3937 O   0  0  0  0  0  0  0  0  0  0  0  0
   36.4882  -15.8951   37.6882 C   0  0  0  0  0  0  0  0  0  0  0  0
   36.2053  -17.2109   37.3231 O   0  0  0  0  0  0  0  0  0  0  0  0
   32.3547  -21.5282   37.3528 N   0  0  0  0  0  0  0  0  0  0  0  0
   31.7985  -21.2987   38.2531 H   0  0  0  0  0  0  0  0  0  0  0  0
   32.9275  -22.8051   37.2533 C   0  0  0  0  0  0  0  0  0  0  0  0
   32.4689  -23.7391   36.3625 C   0  0  0  0  0  0  0  0  0  0  0  0
   33.0663  -25.0116   36.3488 C   0  0  0  0  0  0  0  0  0  0  0  0
   34.0906  -25.3590   37.1907 C   0  0  0  0  0  0  0  0  0  0  0  0
   34.5366  -24.4100   38.0751 C   0  0  0  0  0  0  0  0  0  0  0  0
   33.9718  -23.1294   38.1239 C   0  0  0  0  0  0  0  0  0  0  0  0
   34.6133  -21.9564   39.2403 S   0  0  0  0  0  0  0  0  0  0  0  0
   35.2082  -22.7223   40.4160 O   0  0  0  0  0  0  0  0  0  0  0  0
   33.5386  -21.0879   39.8481 O   0  0  0  0  0  0  0  0  0  0  0  0
   35.8802  -20.9403   38.5693 C   0  0  0  0  0  0  0  0  0  0  0  0
   36.2042  -21.3795   37.1316 C   0  0  0  0  0  0  0  0  0  0  0  0
   37.1463  -21.2285   39.3832 C   0  0  0  0  0  0  0  0  0  0  0  0
 25 26  1  0  0  0
 26 10  1  0  0  0
 10 11  2  0  0  0
 11 12  1  0  0  0
 12 13  2  0  0  0
 13 14  1  0  0  0
 14 15  2  0  0  0
 15  8  1  0  0  0
  8  1  1  0  0  0
  1  2  2  0  0  0
  2  3  1  0  0  0
  3  4  2  0  0  0
  4  5  1  0  0  0
  4  6  1  0  0  0
  6 27  1  0  0  0
 27 29  1  0  0  0
 29 30  2  0  0  0
 30 31  1  0  0  0
 31 32  2  0  0  0
 32 33  1  0  0  0
 33 34  2  0  0  0
 34 35  1  0  0  0
 35 36  2  0  0  0
 35 37  2  0  0  0
 35 38  1  0  0  0
 38 39  1  0  0  0
 38 40  1  0  0  0
  6  7  2  0  0  0
 12 16  1  0  0  0
 16 17  1  0  0  0
 17 18  1  0  0  0
 18 19  1  0  0  0
 19 20  1  0  0  0
 20 21  1  0  0  0
 19 22  1  0  0  0
 22 23  1  0  0  0
 22 24  2  0  0  0
 15 10  1  0  0  0
  7  1  1  0  0  0
 21 16  1  0  0  0
 34 29  1  0  0  0
  8  9  1  0  0  0
 27 28  1  0  0  0
M  END
> <minimizedAffinity>
-5.89401

> <CNNscore>
0.2497812361

> <CNNaffinity>
6.1228861809

> <CNN_VS>
1.5293821096

> <CNNaffinity_variance>
0.7940571308

$$$$
[H]c1nc(N([H])c2c([H])c([H])c(N3C([H])([H])C([H])([H])N(C(=O)C([H])([H])[H])C([H])([H])C3([H])[H])c([H])c2OC([H])([H])[H])nc(N([H])c2c([H])c([H])c([H])c([H])c2S(=O)(=O)C([H])(C([H])([H])[H])C([H])([H])[H])c1Cl


 40 43  0  0  0  0  0  0  0  0999 V2000
   33.5670  -14.0277   36.5445 C   0  0  0  0  0  0  0  0  0  0  0  0
   34.4881  -13.1222   36.2705 N   0  0  0  0  0  0  0  0  0  0  0  0
   34.4109  -11.8671   36.7171 C   0  0  0  0  0  0  0  0  0  0  0  0
   33.3349  -11.4882   37.4945 C   0  0  0  0  0  0  0  0  0  0  0  0
   33.2803   -9.8289   38.0572 Cl  0  0  0  0  0  0  0  0  0  0  0  0
   32.3254  -12.4169   37.8153 C   0  0  0  0  0  0  0  0  0  0  0  0
   32.5184  -13.6252   37.3131 N   0  0  0  0  0  0  0  0  0  0  0  0
   33.5913  -15.3743   36.0935 N   0  0  0  0  0  0  0  0  0  0  0  0
   32.6434  -15.7589   35.7479 H   0  0  0  0  0  0  0  0  0  0  0  0
   34.5926  -17.3470   35.1938 C   0  0  0  0  0  0  0  0  0  0  0  0
   35.6368  -18.2332   35.1159 C   0  0  0  0  0  0  0  0  0  0  0  0
   36.7950  -18.1044   35.8439 C   0  0  0  0  0  0  0  0  0  0  0  0
   36.8807  -17.0217   36.6841 C   0  0  0  0  0  0  0  0  0  0  0  0
   35.8103  -16.1027   36.7719 C   0  0  0  0  0  0  0  0  0  0  0  0
   34.6702  -16.2430   36.0449 C   0  0  0  0  0  0  0  0  0  0  0  0
   37.8404  -19.0331   35.7143 N   0  0  0  0  0  0  0  0  0  0  0  0
   38.3729  -19.7210   36.8725 C   0  0  0  0  0  0  0  0  0  0  0  0
   39.7831  -19.1462   37.0451 C   0  0  0  0  0  0  0  0  0  0  0  0
   40.5494  -19.4289   35.8383 N   0  0  0  0  0  0  0  0  0  0  0  0
   39.9690  -19.4769   34.5306 C   0  0  0  0  0  0  0  0  0  0  0  0
   38.4900  -19.3814   34.4508 C   0  0  0  0  0  0  0  0  0  0  0  0
   41.9310  -19.6662   35.9813 C   0  0  0  0  0  0  0  0  0  0  0  0
   42.7600  -19.9558   34.7992 C   0  0  0  0  0  0  0  0  0  0  0  0
   42.4599  -19.6324   37.1076 O   0  0  0  0  0  0  0  0  0  0  0  0
   32.5275  -18.5496   34.6317 C   0  0  0  0  0  0  0  0  0  0  0  0
   33.4655  -17.5359   34.4390 O   0  0  0  0  0  0  0  0  0  0  0  0
   31.2463  -11.9887   38.6116 N   0  0  0  0  0  0  0  0  0  0  0  0
   31.1007  -10.9164   38.5771 H   0  0  0  0  0  0  0  0  0  0  0  0
   30.3571  -12.7381   39.3966 C   0  0  0  0  0  0  0  0  0  0  0  0
   30.7871  -13.7437   40.2213 C   0  0  0  0  0  0  0  0  0  0  0  0
   29.8329  -14.4785   40.9466 C   0  0  0  0  0  0  0  0  0  0  0  0
   28.4873  -14.2315   40.8639 C   0  0  0  0  0  0  0  0  0  0  0  0
   28.0762  -13.2200   40.0333 C   0  0  0  0  0  0  0  0  0  0  0  0
   28.9910  -12.4617   39.2922 C   0  0  0  0  0  0  0  0  0  0  0  0
   28.4071  -11.1627   38.2894 S   0  0  0  0  0  0  0  0  0  0  0  0
   26.9787  -11.5055   37.8834 O   0  0  0  0  0  0  0  0  0  0  0  0
   29.1634  -11.0517   36.9877 O   0  0  0  0  0  0  0  0  0  0  0  0
   28.3745   -9.5964   39.0852 C   0  0  0  0  0  0  0  0  0  0  0  0
   29.6458   -8.8022   38.7413 C   0  0  0  0  0  0  0  0  0  0  0  0
   28.4553   -9.8711   40.5907 C   0  0  0  0  0  0  0  0  0  0  0  0
 25 26  1  0  0  0
 26 10  1  0  0  0
 10 11  2  0  0  0
 11 12  1  0  0  0
 12 13  2  0  0  0
 13 14  1  0  0  0
 14 15  2  0  0  0
 15  8  1  0  0  0
  8  1  1  0  0  0
  1  2  2  0  0  0
  2  3  1  0  0  0
  3  4  2  0  0  0
  4  5  1  0  0  0
  4  6  1  0  0  0
  6 27  1  0  0  0
 27 29  1  0  0  0
 29 30  2  0  0  0
 30 31  1  0  0  0
 31 32  2  0  0  0
 32 33  1  0  0  0
 33 34  2  0  0  0
 34 35  1  0  0  0
 35 36  2  0  0  0
 35 37  2  0  0  0
 35 38  1  0  0  0
 38 39  1  0  0  0
 38 40  1  0  0  0
  6  7  2  0  0  0
 12 16  1  0  0  0
 16 17  1  0  0  0
 17 18  1  0  0  0
 18 19  1  0  0  0
 19 20  1  0  0  0
 20 21  1  0  0  0
 19 22  1  0  0  0
 22 23  1  0  0  0
 22 24  2  0  0  0
 15 10  1  0  0  0
  7  1  1  0  0  0
 21 16  1  0  0  0
 34 29  1  0  0  0
  8  9  1  0  0  0
 27 28  1  0  0  0
M  END
> <minimizedAffinity>
-8.32524

> <CNNscore>
0.2480043024

> <CNNaffinity>
6.8586950302

> <CNN_VS>
1.7009859085

> <CNNaffinity_variance>
0.0627033338

$$$$
[H]c1nc(N([H])c2c([H])c([H])c(N3C([H])([H])C([H])([H])N(C(=O)C([H])([H])[H])C([H])([H])C3([H])[H])c([H])c2OC([H])([H])[H])nc(N([H])c2c([H])c([H])c([H])c([H])c2S(=O)(=O)C([H])(C([H])([H])[H])C([H])([H])[H])c1Cl


 40 43  0  0  0  0  0  0  0  0999 V2000
   33.1091  -18.6659   35.2615 C   0  0  0  0  0  0  0  0  0  0  0  0
   31.9891  -18.5614   34.5701 N   0  0  0  0  0  0  0  0  0  0  0  0
   30.9605  -19.3929   34.7466 C   0  0  0  0  0  0  0  0  0  0  0  0
   31.0573  -20.4032   35.6823 C   0  0  0  0  0  0  0  0  0  0  0  0
   29.6788  -21.4683   35.8771 Cl  0  0  0  0  0  0  0  0  0  0  0  0
   32.2310  -20.5571   36.4460 C   0  0  0  0  0  0  0  0  0  0  0  0
   33.1753  -19.6709   36.1767 N   0  0  0  0  0  0  0  0  0  0  0  0
   34.2378  -17.8164   35.1140 N   0  0  0  0  0  0  0  0  0  0  0  0
   34.0119  -16.7634   35.0381 H   0  0  0  0  0  0  0  0  0  0  0  0
   36.4075  -17.7935   36.1118 C   0  0  0  0  0  0  0  0  0  0  0  0
   37.7391  -18.1224   36.0940 C   0  0  0  0  0  0  0  0  0  0  0  0
   38.3323  -18.8232   35.0717 C   0  0  0  0  0  0  0  0  0  0  0  0
   37.5229  -19.1993   34.0281 C   0  0  0  0  0  0  0  0  0  0  0  0
   36.1495  -18.8652   34.0367 C   0  0  0  0  0  0  0  0  0  0  0  0
   35.5764  -18.1714   35.0556 C   0  0  0  0  0  0  0  0  0  0  0  0
   39.6981  -19.1473   35.1113 N   0  0  0  0  0  0  0  0  0  0  0  0
   40.2717  -19.8153   36.2614 C   0  0  0  0  0  0  0  0  0  0  0  0
   41.1756  -18.7594   36.9069 C   0  0  0  0  0  0  0  0  0  0  0  0
   42.1906  -18.3642   35.9389 N   0  0  0  0  0  0  0  0  0  0  0  0
   41.9556  -18.3153   34.5277 C   0  0  0  0  0  0  0  0  0  0  0  0
   40.6548  -18.8440   34.0470 C   0  0  0  0  0  0  0  0  0  0  0  0
   43.4641  -18.0163   36.4316 C   0  0  0  0  0  0  0  0  0  0  0  0
   44.5318  -17.6066   35.5038 C   0  0  0  0  0  0  0  0  0  0  0  0
   43.6950  -18.0526   37.6542 O   0  0  0  0  0  0  0  0  0  0  0  0
   36.3425  -15.8583   37.6212 C   0  0  0  0  0  0  0  0  0  0  0  0
   35.8809  -17.0921   37.1638 O   0  0  0  0  0  0  0  0  0  0  0  0
   32.2870  -21.6000   37.3900 N   0  0  0  0  0  0  0  0  0  0  0  0
   31.5924  -21.4606   38.2089 H   0  0  0  0  0  0  0  0  0  0  0  0
   33.0763  -22.7599   37.4007 C   0  0  0  0  0  0  0  0  0  0  0  0
   32.9013  -23.7655   36.4873 C   0  0  0  0  0  0  0  0  0  0  0  0
   33.7029  -24.9163   36.5861 C   0  0  0  0  0  0  0  0  0  0  0  0
   34.6546  -25.0758   37.5594 C   0  0  0  0  0  0  0  0  0  0  0  0
   34.8155  -24.0575   38.4645 C   0  0  0  0  0  0  0  0  0  0  0  0
   34.0399  -22.8930   38.4044 C   0  0  0  0  0  0  0  0  0  0  0  0
   34.3241  -21.6187   39.5574 S   0  0  0  0  0  0  0  0  0  0  0  0
   33.0272  -21.4024   40.3282 O   0  0  0  0  0  0  0  0  0  0  0  0
   34.6067  -20.2919   38.8954 O   0  0  0  0  0  0  0  0  0  0  0  0
   35.5872  -21.9729   40.7265 C   0  0  0  0  0  0  0  0  0  0  0  0
   35.3313  -21.2004   42.0314 C   0  0  0  0  0  0  0  0  0  0  0  0
   36.8855  -21.3944   40.1534 C   0  0  0  0  0  0  0  0  0  0  0  0
 25 26  1  0  0  0
 26 10  1  0  0  0
 10 11  2  0  0  0
 11 12  1  0  0  0
 12 13  2  0  0  0
 13 14  1  0  0  0
 14 15  2  0  0  0
 15  8  1  0  0  0
  8  1  1  0  0  0
  1  2  2  0  0  0
  2  3  1  0  0  0
  3  4  2  0  0  0
  4  5  1  0  0  0
  4  6  1  0  0  0
  6 27  1  0  0  0
 27 29  1  0  0  0
 29 30  2  0  0  0
 30 31  1  0  0  0
 31 32  2  0  0  0
 32 33  1  0  0  0
 33 34  2  0  0  0
 34 35  1  0  0  0
 35 36  2  0  0  0
 35 37  2  0  0  0
 35 38  1  0  0  0
 38 39  1  0  0  0
 38 40  1  0  0  0
  6  7  2  0  0  0
 12 16  1  0  0  0
 16 17  1  0  0  0
 17 18  1  0  0  0
 18 19  1  0  0  0
 19 20  1  0  0  0
 20 21  1  0  0  0
 19 22  1  0  0  0
 22 23  1  0  0  0
 22 24  2  0  0  0
 15 10  1  0  0  0
  7  1  1  0  0  0
 21 16  1  0  0  0
 34 29  1  0  0  0
  8  9  1  0  0  0
 27 28  1  0  0  0
M  END
> <minimizedAffinity>
-6.52394

> <CNNscore>
0.2326449901

> <CNNaffinity>
6.1209645271

> <CNN_VS>
1.4240117073

> <CNNaffinity_variance>
0.8339651227

$$$$
[H]c1nc(N([H])c2c([H])c([H])c(N3C([H])([H])C([H])([H])N(C(=O)C([H])([H])[H])C([H])([H])C3([H])[H])c([H])c2OC([H])([H])[H])nc(N([H])c2c([H])c([H])c([H])c([H])c2S(=O)(=O)C([H])(C([H])([H])[H])C([H])([H])[H])c1Cl


 40 43  0  0  0  0  0  0  0  0999 V2000
   33.7047  -14.3183   36.5635 C   0  0  0  0  0  0  0  0  0  0  0  0
   34.5487  -13.3859   36.1613 N   0  0  0  0  0  0  0  0  0  0  0  0
   34.4899  -12.1293   36.6063 C   0  0  0  0  0  0  0  0  0  0  0  0
   33.5168  -11.7777   37.5201 C   0  0  0  0  0  0  0  0  0  0  0  0
   33.4822  -10.1151   38.0745 Cl  0  0  0  0  0  0  0  0  0  0  0  0
   32.5924  -12.7356   37.9808 C   0  0  0  0  0  0  0  0  0  0  0  0
   32.7567  -13.9424   37.4647 N   0  0  0  0  0  0  0  0  0  0  0  0
   33.7137  -15.6682   36.1219 N   0  0  0  0  0  0  0  0  0  0  0  0
   32.7463  -16.0721   35.8633 H   0  0  0  0  0  0  0  0  0  0  0  0
   34.7351  -17.5239   35.0188 C   0  0  0  0  0  0  0  0  0  0  0  0
   35.7866  -18.3888   34.8511 C   0  0  0  0  0  0  0  0  0  0  0  0
   36.9401  -18.3315   35.5956 C   0  0  0  0  0  0  0  0  0  0  0  0
   37.0130  -17.3461   36.5491 C   0  0  0  0  0  0  0  0  0  0  0  0
   35.9349  -16.4499   36.7300 C   0  0  0  0  0  0  0  0  0  0  0  0
   34.7997  -16.5186   35.9854 C   0  0  0  0  0  0  0  0  0  0  0  0
   37.9934  -19.2330   35.3719 N   0  0  0  0  0  0  0  0  0  0  0  0
   38.2404  -20.3304   36.2844 C   0  0  0  0  0  0  0  0  0  0  0  0
   39.5646  -19.9709   36.9670 C   0  0  0  0  0  0  0  0  0  0  0  0
   40.5981  -19.8631   35.9454 N   0  0  0  0  0  0  0  0  0  0  0  0
   40.3458  -19.3928   34.6171 C   0  0  0  0  0  0  0  0  0  0  0  0
   38.9276  -19.1565   34.2488 C   0  0  0  0  0  0  0  0  0  0  0  0
   41.9078  -20.2462   36.2969 C   0  0  0  0  0  0  0  0  0  0  0  0
   42.9965  -20.1587   35.3091 C   0  0  0  0  0  0  0  0  0  0  0  0
   42.1534  -20.6607   37.4447 O   0  0  0  0  0  0  0  0  0  0  0  0
   32.6864  -18.6773   34.3118 C   0  0  0  0  0  0  0  0  0  0  0  0
   33.6133  -17.6378   34.2413 O   0  0  0  0  0  0  0  0  0  0  0  0
   31.6171  -12.3347   38.9136 N   0  0  0  0  0  0  0  0  0  0  0  0
   32.0080  -12.2574   39.9204 H   0  0  0  0  0  0  0  0  0  0  0  0
   30.2652  -12.0148   38.7175 C   0  0  0  0  0  0  0  0  0  0  0  0
   29.8532  -11.1962   37.6994 C   0  0  0  0  0  0  0  0  0  0  0  0
   28.4859  -10.8875   37.5906 C   0  0  0  0  0  0  0  0  0  0  0  0
   27.5448  -11.3716   38.4616 C   0  0  0  0  0  0  0  0  0  0  0  0
   27.9768  -12.1902   39.4741 C   0  0  0  0  0  0  0  0  0  0  0  0
   29.3287  -12.5250   39.6209 C   0  0  0  0  0  0  0  0  0  0  0  0
   29.8056  -13.6045   40.9019 S   0  0  0  0  0  0  0  0  0  0  0  0
   31.0443  -13.0110   41.5622 O   0  0  0  0  0  0  0  0  0  0  0  0
   30.2495  -14.9524   40.3874 O   0  0  0  0  0  0  0  0  0  0  0  0
   28.5886  -13.8240   42.1503 C   0  0  0  0  0  0  0  0  0  0  0  0
   28.6255  -12.6453   43.1374 C   0  0  0  0  0  0  0  0  0  0  0  0
   29.0131  -15.0533   42.9609 C   0  0  0  0  0  0  0  0  0  0  0  0
 25 26  1  0  0  0
 26 10  1  0  0  0
 10 11  2  0  0  0
 11 12  1  0  0  0
 12 13  2  0  0  0
 13 14  1  0  0  0
 14 15  2  0  0  0
 15  8  1  0  0  0
  8  1  1  0  0  0
  1  2  2  0  0  0
  2  3  1  0  0  0
  3  4  2  0  0  0
  4  5  1  0  0  0
  4  6  1  0  0  0
  6 27  1  0  0  0
 27 29  1  0  0  0
 29 30  2  0  0  0
 30 31  1  0  0  0
 31 32  2  0  0  0
 32 33  1  0  0  0
 33 34  2  0  0  0
 34 35  1  0  0  0
 35 36  2  0  0  0
 35 37  2  0  0  0
 35 38  1  0  0  0
 38 39  1  0  0  0
 38 40  1  0  0  0
  6  7  2  0  0  0
 12 16  1  0  0  0
 16 17  1  0  0  0
 17 18  1  0  0  0
 18 19  1  0  0  0
 19 20  1  0  0  0
 20 21  1  0  0  0
 19 22  1  0  0  0
 22 23  1  0  0  0
 22 24  2  0  0  0
 15 10  1  0  0  0
  7  1  1  0  0  0
 21 16  1  0  0  0
 34 29  1  0  0  0
  8  9  1  0  0  0
 27 28  1  0  0  0
M  END
> <minimizedAffinity>
-8.46638

> <CNNscore>
0.2050272226

> <CNNaffinity>
6.6339316368

> <CNN_VS>
1.3601366282

> <CNNaffinity_variance>
0.2650008798

$$$$
[H]c1nc(N([H])c2c([H])c([H])c(C(F)(F)F)c([H])c2OC([H])(C([H])([H])[H])C([H])([H])[H])nc(N([H])c2c([H])c([H])c([H])c([H])c2S(=O)(=O)C([H])(C([H])([H])[H])C([H])([H])[H])c1Cl


 37 39  0  0  0  0  0  0  0  0999 V2000
   33.3768  -17.3122   35.4070 C   0  0  0  0  0  0  0  0  0  0  0  0
   32.5934  -17.8341   34.4725 N   0  0  0  0  0  0  0  0  0  0  0  0
   32.3994  -19.1535   34.3250 C   0  0  0  0  0  0  0  0  0  0  0  0
   33.0160  -20.0620   35.1589 C   0  0  0  0  0  0  0  0  0  0  0  0
   32.7801  -21.7808   34.9949 Cl  0  0  0  0  0  0  0  0  0  0  0  0
   33.8451  -19.5412   36.1559 C   0  0  0  0  0  0  0  0  0  0  0  0
   33.9884  -18.2356   36.2338 N   0  0  0  0  0  0  0  0  0  0  0  0
   33.5612  -15.9589   35.7407 N   0  0  0  0  0  0  0  0  0  0  0  0
   32.7317  -15.2898   35.5584 H   0  0  0  0  0  0  0  0  0  0  0  0
   34.6584  -13.9870   36.6389 C   0  0  0  0  0  0  0  0  0  0  0  0
   35.8263  -13.3809   37.0031 C   0  0  0  0  0  0  0  0  0  0  0  0
   37.0631  -13.9875   37.0684 C   0  0  0  0  0  0  0  0  0  0  0  0
   37.0866  -15.3235   36.7309 C   0  0  0  0  0  0  0  0  0  0  0  0
   35.9271  -15.9832   36.3505 C   0  0  0  0  0  0  0  0  0  0  0  0
   34.7107  -15.3743   36.2860 C   0  0  0  0  0  0  0  0  0  0  0  0
   38.3102  -13.2507   37.4574 C   0  0  0  0  0  0  0  0  0  0  0  0
   39.3401  -14.2011   37.3494 F   0  0  0  0  0  0  0  0  0  0  0  0
   38.5451  -12.1437   36.6919 F   0  0  0  0  0  0  0  0  0  0  0  0
   38.2531  -12.9491   38.8085 F   0  0  0  0  0  0  0  0  0  0  0  0
   33.4333  -13.4339   36.5762 O   0  0  0  0  0  0  0  0  0  0  0  0
   33.4164  -11.2110   37.5360 C   0  0  0  0  0  0  0  0  0  0  0  0
   32.6769  -12.5872   37.3326 C   0  0  0  0  0  0  0  0  0  0  0  0
   32.3484  -13.0916   38.7048 C   0  0  0  0  0  0  0  0  0  0  0  0
   34.3822  -20.4427   37.1155 N   0  0  0  0  0  0  0  0  0  0  0  0
   33.6940  -21.0912   37.5654 H   0  0  0  0  0  0  0  0  0  0  0  0
   35.7245  -20.5499   37.5231 C   0  0  0  0  0  0  0  0  0  0  0  0
   36.8134  -19.9873   36.8605 C   0  0  0  0  0  0  0  0  0  0  0  0
   38.1162  -20.1075   37.3004 C   0  0  0  0  0  0  0  0  0  0  0  0
   38.3563  -20.8188   38.4491 C   0  0  0  0  0  0  0  0  0  0  0  0
   37.2717  -21.3967   39.1293 C   0  0  0  0  0  0  0  0  0  0  0  0
   35.9913  -21.2699   38.6856 C   0  0  0  0  0  0  0  0  0  0  0  0
   34.6962  -22.0088   39.5952 S   0  0  0  0  0  0  0  0  0  0  0  0
   33.4541  -21.1167   39.5474 O   0  0  0  0  0  0  0  0  0  0  0  0
   35.0544  -22.2208   41.0177 O   0  0  0  0  0  0  0  0  0  0  0  0
   34.1821  -23.5705   38.9061 C   0  0  0  0  0  0  0  0  0  0  0  0
   35.0145  -23.9091   37.7054 C   0  0  0  0  0  0  0  0  0  0  0  0
   32.7536  -23.3387   38.3422 C   0  0  0  0  0  0  0  0  0  0  0  0
 21 22  1  0  0  0
 22 23  1  0  0  0
 22 20  1  0  0  0
 20 10  1  0  0  0
 10 11  2  0  0  0
 11 12  1  0  0  0
 12 13  2  0  0  0
 13 14  1  0  0  0
 14 15  2  0  0  0
 15  8  1  0  0  0
  8  1  1  0  0  0
  1  2  2  0  0  0
  2  3  1  0  0  0
  3  4  2  0  0  0
  4  5  1  0  0  0
  4  6  1  0  0  0
  6 24  1  0  0  0
 24 26  1  0  0  0
 26 27  2  0  0  0
 27 28  1  0  0  0
 28 29  2  0  0  0
 29 30  1  0  0  0
 30 31  2  0  0  0
 31 32  1  0  0  0
 32 33  2  0  0  0
 32 34  2  0  0  0
 32 35  1  0  0  0
 35 36  1  0  0  0
 35 37  1  0  0  0
  6  7  2  0  0  0
 12 16  1  0  0  0
 16 17  1  0  0  0
 16 18  1  0  0  0
 16 19  1  0  0  0
 15 10  1  0  0  0
  7  1  1  0  0  0
 31 26  1  0  0  0
  8  9  1  0  0  0
 24 25  1  0  0  0
M  END
> <minimizedAffinity>
-6.79473

> <CNNscore>
0.2979742587

> <CNNaffinity>
6.4481592178

> <CNN_VS>
1.9213854074

> <CNNaffinity_variance>
0.1551946104

$$$$
[H]c1nc(N([H])c2c([H])c([H])c(C(F)(F)F)c([H])c2OC([H])(C([H])([H])[H])C([H])([H])[H])nc(N([H])c2c([H])c([H])c([H])c([H])c2S(=O)(=O)C([H])(C([H])([H])[H])C([H])([H])[H])c1Cl


 37 39  0  0  0  0  0  0  0  0999 V2000
   33.4440  -17.4839   35.4549 C   0  0  0  0  0  0  0  0  0  0  0  0
   32.6867  -18.0746   34.5401 N   0  0  0  0  0  0  0  0  0  0  0  0
   32.4422  -19.3938   34.5248 C   0  0  0  0  0  0  0  0  0  0  0  0
   32.9749  -20.2283   35.4843 C   0  0  0  0  0  0  0  0  0  0  0  0
   32.6718  -21.9444   35.4934 Cl  0  0  0  0  0  0  0  0  0  0  0  0
   33.7744  -19.6336   36.4640 C   0  0  0  0  0  0  0  0  0  0  0  0
   33.9713  -18.3338   36.4088 N   0  0  0  0  0  0  0  0  0  0  0  0
   33.6709  -16.1102   35.6510 N   0  0  0  0  0  0  0  0  0  0  0  0
   32.8906  -15.4325   35.3335 H   0  0  0  0  0  0  0  0  0  0  0  0
   34.7029  -14.1599   36.6658 C   0  0  0  0  0  0  0  0  0  0  0  0
   35.8518  -13.5302   37.0501 C   0  0  0  0  0  0  0  0  0  0  0  0
   37.1142  -14.0852   37.0491 C   0  0  0  0  0  0  0  0  0  0  0  0
   37.1869  -15.3921   36.6175 C   0  0  0  0  0  0  0  0  0  0  0  0
   36.0483  -16.0736   36.2131 C   0  0  0  0  0  0  0  0  0  0  0  0
   34.8061  -15.5155   36.2147 C   0  0  0  0  0  0  0  0  0  0  0  0
   38.3372  -13.3236   37.4660 C   0  0  0  0  0  0  0  0  0  0  0  0
   38.0440  -12.8466   38.7552 F   0  0  0  0  0  0  0  0  0  0  0  0
   39.4775  -14.0755   37.4391 F   0  0  0  0  0  0  0  0  0  0  0  0
   38.4453  -12.1826   36.6873 F   0  0  0  0  0  0  0  0  0  0  0  0
   33.4544  -13.6578   36.6653 O   0  0  0  0  0  0  0  0  0  0  0  0
   33.6413  -11.3543   37.3875 C   0  0  0  0  0  0  0  0  0  0  0  0
   32.7733  -12.6668   37.3097 C   0  0  0  0  0  0  0  0  0  0  0  0
   32.3755  -12.9887   38.7180 C   0  0  0  0  0  0  0  0  0  0  0  0
   34.2217  -20.4444   37.5431 N   0  0  0  0  0  0  0  0  0  0  0  0
   33.4736  -20.8079   38.1794 H   0  0  0  0  0  0  0  0  0  0  0  0
   35.5487  -20.8008   37.8454 C   0  0  0  0  0  0  0  0  0  0  0  0
   36.5838  -20.9071   36.9187 C   0  0  0  0  0  0  0  0  0  0  0  0
   37.8768  -21.2500   37.2589 C   0  0  0  0  0  0  0  0  0  0  0  0
   38.1620  -21.5019   38.5775 C   0  0  0  0  0  0  0  0  0  0  0  0
   37.1308  -21.4035   39.5262 C   0  0  0  0  0  0  0  0  0  0  0  0
   35.8598  -21.0633   39.1778 C   0  0  0  0  0  0  0  0  0  0  0  0
   34.6362  -20.9508   40.4192 S   0  0  0  0  0  0  0  0  0  0  0  0
   33.3221  -21.5442   39.9076 O   0  0  0  0  0  0  0  0  0  0  0  0
   34.3776  -19.5510   40.8322 O   0  0  0  0  0  0  0  0  0  0  0  0
   35.0479  -21.8986   41.8719 C   0  0  0  0  0  0  0  0  0  0  0  0
   33.8017  -22.2895   42.6090 C   0  0  0  0  0  0  0  0  0  0  0  0
   35.7797  -20.9177   42.8282 C   0  0  0  0  0  0  0  0  0  0  0  0
 21 22  1  0  0  0
 22 23  1  0  0  0
 22 20  1  0  0  0
 20 10  1  0  0  0
 10 11  2  0  0  0
 11 12  1  0  0  0
 12 13  2  0  0  0
 13 14  1  0  0  0
 14 15  2  0  0  0
 15  8  1  0  0  0
  8  1  1  0  0  0
  1  2  2  0  0  0
  2  3  1  0  0  0
  3  4  2  0  0  0
  4  5  1  0  0  0
  4  6  1  0  0  0
  6 24  1  0  0  0
 24 26  1  0  0  0
 26 27  2  0  0  0
 27 28  1  0  0  0
 28 29  2  0  0  0
 29 30  1  0  0  0
 30 31  2  0  0  0
 31 32  1  0  0  0
 32 33  2  0  0  0
 32 34  2  0  0  0
 32 35  1  0  0  0
 35 36  1  0  0  0
 35 37  1  0  0  0
  6  7  2  0  0  0
 12 16  1  0  0  0
 16 17  1  0  0  0
 16 18  1  0  0  0
 16 19  1  0  0  0
 15 10  1  0  0  0
  7  1  1  0  0  0
 31 26  1  0  0  0
  8  9  1  0  0  0
 24 25  1  0  0  0
M  END
> <minimizedAffinity>
-6.80111

> <CNNscore>
0.2462924272

> <CNNaffinity>
6.3443622589

> <CNN_VS>
1.5625684261

> <CNNaffinity_variance>
0.0906048864

$$$$
[H]c1nc(N([H])c2c([H])c([H])c(C(F)(F)F)c([H])c2OC([H])(C([H])([H])[H])C([H])([H])[H])nc(N([H])c2c([H])c([H])c([H])c([H])c2S(=O)(=O)C([H])(C([H])([H])[H])C([H])([H])[H])c1Cl


 37 39  0  0  0  0  0  0  0  0999 V2000
   32.9712  -19.1954   34.7021 C   0  0  0  0  0  0  0  0  0  0  0  0
   31.7647  -18.9408   34.2134 N   0  0  0  0  0  0  0  0  0  0  0  0
   30.6541  -19.5717   34.6243 C   0  0  0  0  0  0  0  0  0  0  0  0
   30.7062  -20.5410   35.6034 C   0  0  0  0  0  0  0  0  0  0  0  0
   29.2808  -21.3743   36.1609 Cl  0  0  0  0  0  0  0  0  0  0  0  0
   31.9640  -20.8283   36.1401 C   0  0  0  0  0  0  0  0  0  0  0  0
   33.0068  -20.1699   35.6816 N   0  0  0  0  0  0  0  0  0  0  0  0
   34.1796  -18.5230   34.4482 N   0  0  0  0  0  0  0  0  0  0  0  0
   34.8360  -18.9546   33.7054 H   0  0  0  0  0  0  0  0  0  0  0  0
   36.0369  -17.2205   35.3157 C   0  0  0  0  0  0  0  0  0  0  0  0
   36.4505  -16.1561   36.0640 C   0  0  0  0  0  0  0  0  0  0  0  0
   35.6353  -15.1787   36.5950 C   0  0  0  0  0  0  0  0  0  0  0  0
   34.2906  -15.3183   36.3269 C   0  0  0  0  0  0  0  0  0  0  0  0
   33.8206  -16.3847   35.5744 C   0  0  0  0  0  0  0  0  0  0  0  0
   34.6338  -17.3468   35.0571 C   0  0  0  0  0  0  0  0  0  0  0  0
   36.1597  -14.0470   37.4279 C   0  0  0  0  0  0  0  0  0  0  0  0
   35.0170  -13.4517   37.9894 F   0  0  0  0  0  0  0  0  0  0  0  0
   37.0559  -14.4458   38.3789 F   0  0  0  0  0  0  0  0  0  0  0  0
   36.6841  -13.0757   36.5904 F   0  0  0  0  0  0  0  0  0  0  0  0
   36.8010  -18.1847   34.7703 O   0  0  0  0  0  0  0  0  0  0  0  0
   38.6058  -18.8544   36.2389 C   0  0  0  0  0  0  0  0  0  0  0  0
   37.4964  -19.2758   35.2028 C   0  0  0  0  0  0  0  0  0  0  0  0
   38.2010  -20.0417   34.1248 C   0  0  0  0  0  0  0  0  0  0  0  0
   32.0300  -21.7202   37.2456 N   0  0  0  0  0  0  0  0  0  0  0  0
   31.6775  -21.3423   38.1565 H   0  0  0  0  0  0  0  0  0  0  0  0
   32.5183  -23.0396   37.2455 C   0  0  0  0  0  0  0  0  0  0  0  0
   31.9585  -24.1042   36.5421 C   0  0  0  0  0  0  0  0  0  0  0  0
   32.4758  -25.3837   36.5605 C   0  0  0  0  0  0  0  0  0  0  0  0
   33.5992  -25.6249   37.3109 C   0  0  0  0  0  0  0  0  0  0  0  0
   34.1761  -24.5652   38.0300 C   0  0  0  0  0  0  0  0  0  0  0  0
   33.6567  -23.3074   38.0026 C   0  0  0  0  0  0  0  0  0  0  0  0
   34.4401  -22.0410   38.9155 S   0  0  0  0  0  0  0  0  0  0  0  0
   35.2758  -22.6538   40.0410 O   0  0  0  0  0  0  0  0  0  0  0  0
   33.4697  -21.1006   39.5244 O   0  0  0  0  0  0  0  0  0  0  0  0
   35.5915  -21.1014   37.9309 C   0  0  0  0  0  0  0  0  0  0  0  0
   37.0007  -21.4134   38.3383 C   0  0  0  0  0  0  0  0  0  0  0  0
   35.3848  -19.6158   38.3341 C   0  0  0  0  0  0  0  0  0  0  0  0
 21 22  1  0  0  0
 22 23  1  0  0  0
 22 20  1  0  0  0
 20 10  1  0  0  0
 10 11  2  0  0  0
 11 12  1  0  0  0
 12 13  2  0  0  0
 13 14  1  0  0  0
 14 15  2  0  0  0
 15  8  1  0  0  0
  8  1  1  0  0  0
  1  2  2  0  0  0
  2  3  1  0  0  0
  3  4  2  0  0  0
  4  5  1  0  0  0
  4  6  1  0  0  0
  6 24  1  0  0  0
 24 26  1  0  0  0
 26 27  2  0  0  0
 27 28  1  0  0  0
 28 29  2  0  0  0
 29 30  1  0  0  0
 30 31  2  0  0  0
 31 32  1  0  0  0
 32 33  2  0  0  0
 32 34  2  0  0  0
 32 35  1  0  0  0
 35 36  1  0  0  0
 35 37  1  0  0  0
  6  7  2  0  0  0
 12 16  1  0  0  0
 16 17  1  0  0  0
 16 18  1  0  0  0
 16 19  1  0  0  0
 15 10  1  0  0  0
  7  1  1  0  0  0
 31 26  1  0  0  0
  8  9  1  0  0  0
 24 25  1  0  0  0
M  END
> <minimizedAffinity>
-6.74787

> <CNNscore>
0.2138934731

> <CNNaffinity>
6.2828578949

> <CNN_VS>
1.3438622952

> <CNNaffinity_variance>
0.5308242440

$$$$
[H]c1nc(N([H])c2c([H])c([H])c(C(F)(F)F)c([H])c2OC([H])(C([H])([H])[H])C([H])([H])[H])nc(N([H])c2c([H])c([H])c([H])c([H])c2S(=O)(=O)C([H])(C([H])([H])[H])C([H])([H])[H])c1Cl


 37 39  0  0  0  0  0  0  0  0999 V2000
   33.6237  -14.0250   36.6383 C   0  0  0  0  0  0  0  0  0  0  0  0
   34.5250  -13.0879   36.3763 N   0  0  0  0  0  0  0  0  0  0  0  0
   34.4051  -11.8148   36.7829 C   0  0  0  0  0  0  0  0  0  0  0  0
   33.3134  -11.4009   37.5162 C   0  0  0  0  0  0  0  0  0  0  0  0
   33.1319   -9.7559   38.0621 Cl  0  0  0  0  0  0  0  0  0  0  0  0
   32.3484  -12.3676   37.8109 C   0  0  0  0  0  0  0  0  0  0  0  0
   32.5352  -13.5942   37.3730 N   0  0  0  0  0  0  0  0  0  0  0  0
   33.6939  -15.4053   36.3799 N   0  0  0  0  0  0  0  0  0  0  0  0
   32.7590  -15.9234   36.2170 H   0  0  0  0  0  0  0  0  0  0  0  0
   34.7437  -17.4962   35.7280 C   0  0  0  0  0  0  0  0  0  0  0  0
   35.8259  -18.3232   35.8225 C   0  0  0  0  0  0  0  0  0  0  0  0
   37.0254  -18.0150   36.4290 C   0  0  0  0  0  0  0  0  0  0  0  0
   37.1056  -16.7529   36.9769 C   0  0  0  0  0  0  0  0  0  0  0  0
   36.0318  -15.8772   36.9100 C   0  0  0  0  0  0  0  0  0  0  0  0
   34.8499  -16.1923   36.3115 C   0  0  0  0  0  0  0  0  0  0  0  0
   38.1662  -18.9850   36.5136 C   0  0  0  0  0  0  0  0  0  0  0  0
   38.1676  -19.6503   35.2755 F   0  0  0  0  0  0  0  0  0  0  0  0
   39.3652  -18.3873   36.7813 F   0  0  0  0  0  0  0  0  0  0  0  0
   37.8546  -19.9684   37.4385 F   0  0  0  0  0  0  0  0  0  0  0  0
   33.5642  -17.7550   35.1341 O   0  0  0  0  0  0  0  0  0  0  0  0
   32.8159  -19.7163   36.3406 C   0  0  0  0  0  0  0  0  0  0  0  0
   32.4582  -18.5111   35.3912 C   0  0  0  0  0  0  0  0  0  0  0  0
   31.8099  -19.1110   34.1808 C   0  0  0  0  0  0  0  0  0  0  0  0
   31.2842  -12.0046   38.6814 N   0  0  0  0  0  0  0  0  0  0  0  0
   31.1858  -10.9805   38.8770 H   0  0  0  0  0  0  0  0  0  0  0  0
   30.3637  -12.8671   39.3045 C   0  0  0  0  0  0  0  0  0  0  0  0
   30.6909  -14.0454   39.9723 C   0  0  0  0  0  0  0  0  0  0  0  0
   29.7567  -14.8593   40.5804 C   0  0  0  0  0  0  0  0  0  0  0  0
   28.4351  -14.4937   40.5256 C   0  0  0  0  0  0  0  0  0  0  0  0
   28.0850  -13.3109   39.8536 C   0  0  0  0  0  0  0  0  0  0  0  0
   29.0162  -12.5163   39.2588 C   0  0  0  0  0  0  0  0  0  0  0  0
   28.5010  -11.0549   38.4527 S   0  0  0  0  0  0  0  0  0  0  0  0
   27.0050  -11.1336   38.1420 O   0  0  0  0  0  0  0  0  0  0  0  0
   29.2230  -10.8281   37.1784 O   0  0  0  0  0  0  0  0  0  0  0  0
   28.6951   -9.6067   39.4742 C   0  0  0  0  0  0  0  0  0  0  0  0
   27.3797   -8.9055   39.6387 C   0  0  0  0  0  0  0  0  0  0  0  0
   29.5679   -8.6189   38.6528 C   0  0  0  0  0  0  0  0  0  0  0  0
 21 22  1  0  0  0
 22 23  1  0  0  0
 22 20  1  0  0  0
 20 10  1  0  0  0
 10 11  2  0  0  0
 11 12  1  0  0  0
 12 13  2  0  0  0
 13 14  1  0  0  0
 14 15  2  0  0  0
 15  8  1  0  0  0
  8  1  1  0  0  0
  1  2  2  0  0  0
  2  3  1  0  0  0
  3  4  2  0  0  0
  4  5  1  0  0  0
  4  6  1  0  0  0
  6 24  1  0  0  0
 24 26  1  0  0  0
 26 27  2  0  0  0
 27 28  1  0  0  0
 28 29  2  0  0  0
 29 30  1  0  0  0
 30 31  2  0  0  0
 31 32  1  0  0  0
 32 33  2  0  0  0
 32 34  2  0  0  0
 32 35  1  0  0  0
 35 36  1  0  0  0
 35 37  1  0  0  0
  6  7  2  0  0  0
 12 16  1  0  0  0
 16 17  1  0  0  0
 16 18  1  0  0  0
 16 19  1  0  0  0
 15 10  1  0  0  0
  7  1  1  0  0  0
 31 26  1  0  0  0
  8  9  1  0  0  0
 24 25  1  0  0  0
M  END
> <minimizedAffinity>
-7.79639

> <CNNscore>
0.2024409920

> <CNNaffinity>
6.7089490891

> <CNN_VS>
1.3581663370

> <CNNaffinity_variance>
0.1043637022

$$$$
[H]c1nc(N([H])c2c([H])c([H])c(C(F)(F)F)c([H])c2OC([H])(C([H])([H])[H])C([H])([H])[H])nc(N([H])c2c([H])c([H])c([H])c([H])c2S(=O)(=O)C([H])(C([H])([H])[H])C([H])([H])[H])c1Cl


 37 39  0  0  0  0  0  0  0  0999 V2000
   33.3313  -17.8011   35.4818 C   0  0  0  0  0  0  0  0  0  0  0  0
   33.7523  -18.2052   34.2907 N   0  0  0  0  0  0  0  0  0  0  0  0
   33.4907  -19.4221   33.7897 C   0  0  0  0  0  0  0  0  0  0  0  0
   32.7491  -20.3412   34.5012 C   0  0  0  0  0  0  0  0  0  0  0  0
   32.3892  -21.9273   33.8753 Cl  0  0  0  0  0  0  0  0  0  0  0  0
   32.2885  -19.9422   35.7587 C   0  0  0  0  0  0  0  0  0  0  0  0
   32.5905  -18.7338   36.1828 N   0  0  0  0  0  0  0  0  0  0  0  0
   33.4306  -16.5230   36.0593 N   0  0  0  0  0  0  0  0  0  0  0  0
   32.5141  -16.0687   36.4094 H   0  0  0  0  0  0  0  0  0  0  0  0
   35.7122  -16.3820   36.8800 C   0  0  0  0  0  0  0  0  0  0  0  0
   36.7762  -15.5895   37.2022 C   0  0  0  0  0  0  0  0  0  0  0  0
   36.8780  -14.2368   36.9542 C   0  0  0  0  0  0  0  0  0  0  0  0
   35.7934  -13.6664   36.3236 C   0  0  0  0  0  0  0  0  0  0  0  0
   34.6868  -14.4289   35.9792 C   0  0  0  0  0  0  0  0  0  0  0  0
   34.5945  -15.7640   36.2315 C   0  0  0  0  0  0  0  0  0  0  0  0
   38.0725  -13.4242   37.3573 C   0  0  0  0  0  0  0  0  0  0  0  0
   37.8829  -13.1562   38.7240 F   0  0  0  0  0  0  0  0  0  0  0  0
   39.2609  -14.0523   37.1130 F   0  0  0  0  0  0  0  0  0  0  0  0
   38.0017  -12.1835   36.7447 F   0  0  0  0  0  0  0  0  0  0  0  0
   35.5815  -17.7044   37.0927 O   0  0  0  0  0  0  0  0  0  0  0  0
   37.7830  -18.5530   36.5489 C   0  0  0  0  0  0  0  0  0  0  0  0
   36.4063  -18.7744   37.2821 C   0  0  0  0  0  0  0  0  0  0  0  0
   35.8701  -20.0799   36.7786 C   0  0  0  0  0  0  0  0  0  0  0  0
   31.4065  -20.8143   36.4541 N   0  0  0  0  0  0  0  0  0  0  0  0
   30.3845  -20.6398   36.3066 H   0  0  0  0  0  0  0  0  0  0  0  0
   31.7585  -21.8711   37.3135 C   0  0  0  0  0  0  0  0  0  0  0  0
   33.0590  -22.2065   37.6847 C   0  0  0  0  0  0  0  0  0  0  0  0
   33.3612  -23.2465   38.5405 C   0  0  0  0  0  0  0  0  0  0  0  0
   32.3302  -23.9929   39.0536 C   0  0  0  0  0  0  0  0  0  0  0  0
   31.0123  -23.6724   38.6881 C   0  0  0  0  0  0  0  0  0  0  0  0
   30.7275  -22.6434   37.8440 C   0  0  0  0  0  0  0  0  0  0  0  0
   29.0611  -22.3015   37.4477 S   0  0  0  0  0  0  0  0  0  0  0  0
   28.8198  -20.7910   37.4791 O   0  0  0  0  0  0  0  0  0  0  0  0
   28.1136  -22.9373   38.3936 O   0  0  0  0  0  0  0  0  0  0  0  0
   28.6334  -22.8132   35.7944 C   0  0  0  0  0  0  0  0  0  0  0  0
   27.3522  -23.5928   35.8056 C   0  0  0  0  0  0  0  0  0  0  0  0
   29.7170  -23.8428   35.3725 C   0  0  0  0  0  0  0  0  0  0  0  0
 21 22  1  0  0  0
 22 23  1  0  0  0
 22 20  1  0  0  0
 20 10  1  0  0  0
 10 11  2  0  0  0
 11 12  1  0  0  0
 12 13  2  0  0  0
 13 14  1  0  0  0
 14 15  2  0  0  0
 15  8  1  0  0  0
  8  1  1  0  0  0
  1  2  2  0  0  0
  2  3  1  0  0  0
  3  4  2  0  0  0
  4  5  1  0  0  0
  4  6  1  0  0  0
  6 24  1  0  0  0
 24 26  1  0  0  0
 26 27  2  0  0  0
 27 28  1  0  0  0
 28 29  2  0  0  0
 29 30  1  0  0  0
 30 31  2  0  0  0
 31 32  1  0  0  0
 32 33  2  0  0  0
 32 34  2  0  0  0
 32 35  1  0  0  0
 35 36  1  0  0  0
 35 37  1  0  0  0
  6  7  2  0  0  0
 12 16  1  0  0  0
 16 17  1  0  0  0
 16 18  1  0  0  0
 16 19  1  0  0  0
 15 10  1  0  0  0
  7  1  1  0  0  0
 31 26  1  0  0  0
  8  9  1  0  0  0
 24 25  1  0  0  0
M  END
> <minimizedAffinity>
-6.42122

> <CNNscore>
0.1912598014

> <CNNaffinity>
6.0023832321

> <CNN_VS>
1.1480146646

> <CNNaffinity_variance>
0.1220916063

$$$$
[H]c1nc(N([H])c2c([H])c([H])c(C(F)(F)F)c([H])c2OC([H])(C([H])([H])[H])C([H])([H])[H])nc(N([H])c2c([H])c([H])c([H])c([H])c2S(=O)(=O)C([H])(C([H])([H])[H])C([H])([H])[H])c1Cl


 37 39  0  0  0  0  0  0  0  0999 V2000
   33.3665  -17.3782   35.7194 C   0  0  0  0  0  0  0  0  0  0  0  0
   32.2023  -18.0128   35.6852 N   0  0  0  0  0  0  0  0  0  0  0  0
   32.0913  -19.3498   35.6641 C   0  0  0  0  0  0  0  0  0  0  0  0
   33.2084  -20.1578   35.6805 C   0  0  0  0  0  0  0  0  0  0  0  0
   33.0962  -21.8967   35.6584 Cl  0  0  0  0  0  0  0  0  0  0  0  0
   34.4496  -19.5172   35.7203 C   0  0  0  0  0  0  0  0  0  0  0  0
   34.4763  -18.2018   35.7343 N   0  0  0  0  0  0  0  0  0  0  0  0
   33.6102  -16.0017   35.8698 N   0  0  0  0  0  0  0  0  0  0  0  0
   32.8298  -15.3258   35.5487 H   0  0  0  0  0  0  0  0  0  0  0  0
   34.7530  -13.9833   36.5903 C   0  0  0  0  0  0  0  0  0  0  0  0
   35.9309  -13.3826   36.9308 C   0  0  0  0  0  0  0  0  0  0  0  0
   37.1399  -14.0217   37.1081 C   0  0  0  0  0  0  0  0  0  0  0  0
   37.1223  -15.3867   36.9183 C   0  0  0  0  0  0  0  0  0  0  0  0
   35.9513  -16.0427   36.5678 C   0  0  0  0  0  0  0  0  0  0  0  0
   34.7627  -15.4018   36.3918 C   0  0  0  0  0  0  0  0  0  0  0  0
   38.4011  -13.2913   37.4621 C   0  0  0  0  0  0  0  0  0  0  0  0
   38.2086  -12.8577   38.7852 F   0  0  0  0  0  0  0  0  0  0  0  0
   39.5250  -14.0562   37.3265 F   0  0  0  0  0  0  0  0  0  0  0  0
   38.4706  -12.1243   36.7184 F   0  0  0  0  0  0  0  0  0  0  0  0
   33.5534  -13.3974   36.4217 O   0  0  0  0  0  0  0  0  0  0  0  0
   33.1248  -11.1980   37.3391 C   0  0  0  0  0  0  0  0  0  0  0  0
   32.6651  -12.6969   37.1842 C   0  0  0  0  0  0  0  0  0  0  0  0
   32.4773  -13.2220   38.5750 C   0  0  0  0  0  0  0  0  0  0  0  0
   35.6112  -20.3219   35.8787 N   0  0  0  0  0  0  0  0  0  0  0  0
   36.0223  -20.7061   34.9955 H   0  0  0  0  0  0  0  0  0  0  0  0
   36.2555  -20.6567   37.0837 C   0  0  0  0  0  0  0  0  0  0  0  0
   35.6177  -21.1020   38.2398 C   0  0  0  0  0  0  0  0  0  0  0  0
   36.2892  -21.4306   39.4001 C   0  0  0  0  0  0  0  0  0  0  0  0
   37.6563  -21.3126   39.4213 C   0  0  0  0  0  0  0  0  0  0  0  0
   38.3170  -20.8617   38.2667 C   0  0  0  0  0  0  0  0  0  0  0  0
   37.6432  -20.5418   37.1282 C   0  0  0  0  0  0  0  0  0  0  0  0
   38.5394  -19.9997   35.7304 S   0  0  0  0  0  0  0  0  0  0  0  0
   38.1405  -18.5640   35.3833 O   0  0  0  0  0  0  0  0  0  0  0  0
   38.2928  -20.8453   34.5384 O   0  0  0  0  0  0  0  0  0  0  0  0
   40.2966  -19.9428   36.0256 C   0  0  0  0  0  0  0  0  0  0  0  0
   40.6643  -18.6746   36.7367 C   0  0  0  0  0  0  0  0  0  0  0  0
   40.9604  -19.8167   34.6271 C   0  0  0  0  0  0  0  0  0  0  0  0
 21 22  1  0  0  0
 22 23  1  0  0  0
 22 20  1  0  0  0
 20 10  1  0  0  0
 10 11  2  0  0  0
 11 12  1  0  0  0
 12 13  2  0  0  0
 13 14  1  0  0  0
 14 15  2  0  0  0
 15  8  1  0  0  0
  8  1  1  0  0  0
  1  2  2  0  0  0
  2  3  1  0  0  0
  3  4  2  0  0  0
  4  5  1  0  0  0
  4  6  1  0  0  0
  6 24  1  0  0  0
 24 26  1  0  0  0
 26 27  2  0  0  0
 27 28  1  0  0  0
 28 29  2  0  0  0
 29 30  1  0  0  0
 30 31  2  0  0  0
 31 32  1  0  0  0
 32 33  2  0  0  0
 32 34  2  0  0  0
 32 35  1  0  0  0
 35 36  1  0  0  0
 35 37  1  0  0  0
  6  7  2  0  0  0
 12 16  1  0  0  0
 16 17  1  0  0  0
 16 18  1  0  0  0
 16 19  1  0  0  0
 15 10  1  0  0  0
  7  1  1  0  0  0
 31 26  1  0  0  0
  8  9  1  0  0  0
 24 25  1  0  0  0
M  END
> <minimizedAffinity>
-6.89428

> <CNNscore>
0.1891745925

> <CNNaffinity>
6.0480375290

> <CNN_VS>
1.1441349983

> <CNNaffinity_variance>
0.3961363733

$$$$
[H]c1nc(N([H])c2c([H])c([H])c(C(F)(F)F)c([H])c2OC([H])(C([H])([H])[H])C([H])([H])[H])nc(N([H])c2c([H])c([H])c([H])c([H])c2S(=O)(=O)C([H])(C([H])([H])[H])C([H])([H])[H])c1Cl


 37 39  0  0  0  0  0  0  0  0999 V2000
   37.3545  -18.6503   35.6995 C   0  0  0  0  0  0  0  0  0  0  0  0
   38.6694  -18.7736   35.5763 N   0  0  0  0  0  0  0  0  0  0  0  0
   39.4228  -19.5071   36.4096 C   0  0  0  0  0  0  0  0  0  0  0  0
   38.8579  -20.1927   37.4641 C   0  0  0  0  0  0  0  0  0  0  0  0
   39.8094  -21.1569   38.5602 Cl  0  0  0  0  0  0  0  0  0  0  0  0
   37.4731  -20.0846   37.6171 C   0  0  0  0  0  0  0  0  0  0  0  0
   36.8037  -19.3423   36.7615 N   0  0  0  0  0  0  0  0  0  0  0  0
   36.4477  -18.0214   34.8283 N   0  0  0  0  0  0  0  0  0  0  0  0
   36.8339  -17.2254   34.2068 H   0  0  0  0  0  0  0  0  0  0  0  0
   34.1444  -17.5420   35.4316 C   0  0  0  0  0  0  0  0  0  0  0  0
   32.8392  -17.9423   35.4140 C   0  0  0  0  0  0  0  0  0  0  0  0
   32.3378  -19.0265   34.7250 C   0  0  0  0  0  0  0  0  0  0  0  0
   33.2621  -19.7470   33.9997 C   0  0  0  0  0  0  0  0  0  0  0  0
   34.6005  -19.3825   33.9887 C   0  0  0  0  0  0  0  0  0  0  0  0
   35.0865  -18.3116   34.6753 C   0  0  0  0  0  0  0  0  0  0  0  0
   30.8911  -19.4198   34.7700 C   0  0  0  0  0  0  0  0  0  0  0  0
   30.8906  -20.7416   35.2481 F   0  0  0  0  0  0  0  0  0  0  0  0
   30.1290  -18.5897   35.5423 F   0  0  0  0  0  0  0  0  0  0  0  0
   30.4094  -19.5165   33.4745 F   0  0  0  0  0  0  0  0  0  0  0  0
   34.6684  -16.4850   36.0788 O   0  0  0  0  0  0  0  0  0  0  0  0
   36.1569  -14.5872   36.2925 C   0  0  0  0  0  0  0  0  0  0  0  0
   34.7316  -15.1336   35.9026 C   0  0  0  0  0  0  0  0  0  0  0  0
   33.7466  -14.3461   36.7118 C   0  0  0  0  0  0  0  0  0  0  0  0
   36.8463  -20.8895   38.6076 N   0  0  0  0  0  0  0  0  0  0  0  0
   37.0334  -20.6162   39.6011 H   0  0  0  0  0  0  0  0  0  0  0  0
   36.0153  -22.0048   38.3958 C   0  0  0  0  0  0  0  0  0  0  0  0
   36.1972  -22.9662   37.4037 C   0  0  0  0  0  0  0  0  0  0  0  0
   35.3631  -24.0531   37.2361 C   0  0  0  0  0  0  0  0  0  0  0  0
   34.2967  -24.1976   38.0877 C   0  0  0  0  0  0  0  0  0  0  0  0
   34.0946  -23.2366   39.0920 C   0  0  0  0  0  0  0  0  0  0  0  0
   34.9252  -22.1696   39.2475 C   0  0  0  0  0  0  0  0  0  0  0  0
   34.6122  -21.0245   40.5288 S   0  0  0  0  0  0  0  0  0  0  0  0
   33.1591  -21.1480   40.9914 O   0  0  0  0  0  0  0  0  0  0  0  0
   34.8406  -19.6235   40.1025 O   0  0  0  0  0  0  0  0  0  0  0  0
   35.5979  -21.3381   41.9808 C   0  0  0  0  0  0  0  0  0  0  0  0
   34.9621  -22.4054   42.8211 C   0  0  0  0  0  0  0  0  0  0  0  0
   35.5069  -20.0506   42.8446 C   0  0  0  0  0  0  0  0  0  0  0  0
 21 22  1  0  0  0
 22 23  1  0  0  0
 22 20  1  0  0  0
 20 10  1  0  0  0
 10 11  2  0  0  0
 11 12  1  0  0  0
 12 13  2  0  0  0
 13 14  1  0  0  0
 14 15  2  0  0  0
 15  8  1  0  0  0
  8  1  1  0  0  0
  1  2  2  0  0  0
  2  3  1  0  0  0
  3  4  2  0  0  0
  4  5  1  0  0  0
  4  6  1  0  0  0
  6 24  1  0  0  0
 24 26  1  0  0  0
 26 27  2  0  0  0
 27 28  1  0  0  0
 28 29  2  0  0  0
 29 30  1  0  0  0
 30 31  2  0  0  0
 31 32  1  0  0  0
 32 33  2  0  0  0
 32 34  2  0  0  0
 32 35  1  0  0  0
 35 36  1  0  0  0
 35 37  1  0  0  0
  6  7  2  0  0  0
 12 16  1  0  0  0
 16 17  1  0  0  0
 16 18  1  0  0  0
 16 19  1  0  0  0
 15 10  1  0  0  0
  7  1  1  0  0  0
 31 26  1  0  0  0
  8  9  1  0  0  0
 24 25  1  0  0  0
M  END
> <minimizedAffinity>
-5.94359

> <CNNscore>
0.1657254845

> <CNNaffinity>
5.9971179962

> <CNN_VS>
0.9938752651

> <CNNaffinity_variance>
0.3090202212

$$$$
[H]c1nc(N([H])c2c([H])c([H])c(C(F)(F)F)c([H])c2OC([H])(C([H])([H])[H])C([H])([H])[H])nc(N([H])c2c([H])c([H])c([H])c([H])c2S(=O)(=O)C([H])(C([H])([H])[H])C([H])([H])[H])c1Cl


 37 39  0  0  0  0  0  0  0  0999 V2000
   33.0999  -19.0934   35.3002 C   0  0  0  0  0  0  0  0  0  0  0  0
   31.9835  -18.4627   34.9610 N   0  0  0  0  0  0  0  0  0  0  0  0
   30.7742  -19.0435   34.9769 C   0  0  0  0  0  0  0  0  0  0  0  0
   30.6207  -20.3593   35.3591 C   0  0  0  0  0  0  0  0  0  0  0  0
   29.0629  -21.1397   35.3943 Cl  0  0  0  0  0  0  0  0  0  0  0  0
   31.7795  -21.0488   35.7257 C   0  0  0  0  0  0  0  0  0  0  0  0
   32.9296  -20.4114   35.6797 N   0  0  0  0  0  0  0  0  0  0  0  0
   34.3953  -18.5661   35.4444 N   0  0  0  0  0  0  0  0  0  0  0  0
   35.2211  -19.2582   35.3541 H   0  0  0  0  0  0  0  0  0  0  0  0
   35.9953  -16.9695   36.3331 C   0  0  0  0  0  0  0  0  0  0  0  0
   36.2470  -15.6890   36.7346 C   0  0  0  0  0  0  0  0  0  0  0  0
   35.3979  -14.6137   36.5781 C   0  0  0  0  0  0  0  0  0  0  0  0
   34.1989  -14.8904   35.9573 C   0  0  0  0  0  0  0  0  0  0  0  0
   33.8951  -16.1763   35.5346 C   0  0  0  0  0  0  0  0  0  0  0  0
   34.7393  -17.2325   35.6967 C   0  0  0  0  0  0  0  0  0  0  0  0
   35.7337  -13.2354   37.0650 C   0  0  0  0  0  0  0  0  0  0  0  0
   35.8772  -12.4648   35.8983 F   0  0  0  0  0  0  0  0  0  0  0  0
   34.7965  -12.7188   37.9144 F   0  0  0  0  0  0  0  0  0  0  0  0
   36.9985  -13.2524   37.6305 F   0  0  0  0  0  0  0  0  0  0  0  0
   36.8017  -18.0398   36.4556 O   0  0  0  0  0  0  0  0  0  0  0  0
   37.2912  -20.4093   36.3643 C   0  0  0  0  0  0  0  0  0  0  0  0
   37.3090  -19.0098   35.6413 C   0  0  0  0  0  0  0  0  0  0  0  0
   38.7232  -18.7856   35.1999 C   0  0  0  0  0  0  0  0  0  0  0  0
   31.6360  -22.3602   36.2565 N   0  0  0  0  0  0  0  0  0  0  0  0
   31.8539  -22.4648   37.2754 H   0  0  0  0  0  0  0  0  0  0  0  0
   31.2421  -23.5194   35.5633 C   0  0  0  0  0  0  0  0  0  0  0  0
   31.4471  -23.7528   34.2050 C   0  0  0  0  0  0  0  0  0  0  0  0
   31.0537  -24.9104   33.5645 C   0  0  0  0  0  0  0  0  0  0  0  0
   30.4260  -25.8845   34.2997 C   0  0  0  0  0  0  0  0  0  0  0  0
   30.2070  -25.6661   35.6698 C   0  0  0  0  0  0  0  0  0  0  0  0
   30.6008  -24.5203   36.2899 C   0  0  0  0  0  0  0  0  0  0  0  0
   30.3022  -24.3300   38.0003 S   0  0  0  0  0  0  0  0  0  0  0  0
   31.5485  -23.7651   38.6848 O   0  0  0  0  0  0  0  0  0  0  0  0
   29.9578  -25.6119   38.6596 O   0  0  0  0  0  0  0  0  0  0  0  0
   29.0042  -23.1563   38.3406 C   0  0  0  0  0  0  0  0  0  0  0  0
   28.6143  -23.2161   39.7875 C   0  0  0  0  0  0  0  0  0  0  0  0
   27.7540  -23.6685   37.5745 C   0  0  0  0  0  0  0  0  0  0  0  0
 21 22  1  0  0  0
 22 23  1  0  0  0
 22 20  1  0  0  0
 20 10  1  0  0  0
 10 11  2  0  0  0
 11 12  1  0  0  0
 12 13  2  0  0  0
 13 14  1  0  0  0
 14 15  2  0  0  0
 15  8  1  0  0  0
  8  1  1  0  0  0
  1  2  2  0  0  0
  2  3  1  0  0  0
  3  4  2  0  0  0
  4  5  1  0  0  0
  4  6  1  0  0  0
  6 24  1  0  0  0
 24 26  1  0  0  0
 26 27  2  0  0  0
 27 28  1  0  0  0
 28 29  2  0  0  0
 29 30  1  0  0  0
 30 31  2  0  0  0
 31 32  1  0  0  0
 32 33  2  0  0  0
 32 34  2  0  0  0
 32 35  1  0  0  0
 35 36  1  0  0  0
 35 37  1  0  0  0
  6  7  2  0  0  0
 12 16  1  0  0  0
 16 17  1  0  0  0
 16 18  1  0  0  0
 16 19  1  0  0  0
 15 10  1  0  0  0
  7  1  1  0  0  0
 31 26  1  0  0  0
  8  9  1  0  0  0
 24 25  1  0  0  0
M  END
> <minimizedAffinity>
-6.30578

> <CNNscore>
0.1586656868

> <CNNaffinity>
6.0978326797

> <CNN_VS>
0.9675168395

> <CNNaffinity_variance>
0.2081114352

$$$$
[H]c1nc(N([H])c2c([H])c([H])c(C(F)(F)F)c([H])c2OC([H])(C([H])([H])[H])C([H])([H])[H])nc(N([H])c2c([H])c([H])c([H])c([H])c2S(=O)(=O)C([H])(C([H])([H])[H])C([H])([H])[H])c1Cl


 37 39  0  0  0  0  0  0  0  0999 V2000
   36.7270  -21.0961   38.1446 C   0  0  0  0  0  0  0  0  0  0  0  0
   36.8193  -22.3316   37.6710 N   0  0  0  0  0  0  0  0  0  0  0  0
   37.9310  -23.0768   37.7657 C   0  0  0  0  0  0  0  0  0  0  0  0
   39.0658  -22.5889   38.3783 C   0  0  0  0  0  0  0  0  0  0  0  0
   40.5229  -23.5342   38.5206 Cl  0  0  0  0  0  0  0  0  0  0  0  0
   38.9973  -21.2906   38.8906 C   0  0  0  0  0  0  0  0  0  0  0  0
   37.8728  -20.6213   38.7546 N   0  0  0  0  0  0  0  0  0  0  0  0
   35.5930  -20.2684   38.2191 N   0  0  0  0  0  0  0  0  0  0  0  0
   35.5363  -19.5855   39.0554 H   0  0  0  0  0  0  0  0  0  0  0  0
   34.3440  -19.0524   36.5279 C   0  0  0  0  0  0  0  0  0  0  0  0
   33.2002  -18.9481   35.7897 C   0  0  0  0  0  0  0  0  0  0  0  0
   32.1881  -19.8833   35.7350 C   0  0  0  0  0  0  0  0  0  0  0  0
   32.3805  -21.0106   36.5041 C   0  0  0  0  0  0  0  0  0  0  0  0
   33.5243  -21.1615   37.2743 C   0  0  0  0  0  0  0  0  0  0  0  0
   34.5169  -20.2305   37.3241 C   0  0  0  0  0  0  0  0  0  0  0  0
   30.9467  -19.6903   34.9158 C   0  0  0  0  0  0  0  0  0  0  0  0
   30.2485  -20.9053   35.0257 F   0  0  0  0  0  0  0  0  0  0  0  0
   30.1944  -18.6229   35.3174 F   0  0  0  0  0  0  0  0  0  0  0  0
   31.2972  -19.6085   33.5778 F   0  0  0  0  0  0  0  0  0  0  0  0
   35.3578  -18.1701   36.5968 O   0  0  0  0  0  0  0  0  0  0  0  0
   36.7406  -17.5930   34.6949 C   0  0  0  0  0  0  0  0  0  0  0  0
   35.8118  -17.1078   35.8712 C   0  0  0  0  0  0  0  0  0  0  0  0
   36.6117  -16.1086   36.6502 C   0  0  0  0  0  0  0  0  0  0  0  0
   40.1017  -20.8131   39.6485 N   0  0  0  0  0  0  0  0  0  0  0  0
   40.1364  -21.1251   40.6476 H   0  0  0  0  0  0  0  0  0  0  0  0
   41.1373  -19.9711   39.2040 C   0  0  0  0  0  0  0  0  0  0  0  0
   41.3825  -19.6308   37.8752 C   0  0  0  0  0  0  0  0  0  0  0  0
   42.4049  -18.7912   37.4815 C   0  0  0  0  0  0  0  0  0  0  0  0
   43.2263  -18.2629   38.4457 C   0  0  0  0  0  0  0  0  0  0  0  0
   42.9972  -18.5972   39.7906 C   0  0  0  0  0  0  0  0  0  0  0  0
   41.9847  -19.4256   40.1660 C   0  0  0  0  0  0  0  0  0  0  0  0
   41.7586  -19.7831   41.8606 S   0  0  0  0  0  0  0  0  0  0  0  0
   40.2644  -19.8296   42.1862 O   0  0  0  0  0  0  0  0  0  0  0  0
   42.3886  -18.7703   42.7404 O   0  0  0  0  0  0  0  0  0  0  0  0
   42.3896  -21.3887   42.3101 C   0  0  0  0  0  0  0  0  0  0  0  0
   43.1153  -22.0059   41.1517 C   0  0  0  0  0  0  0  0  0  0  0  0
   41.1445  -22.2927   42.5216 C   0  0  0  0  0  0  0  0  0  0  0  0
 21 22  1  0  0  0
 22 23  1  0  0  0
 22 20  1  0  0  0
 20 10  1  0  0  0
 10 11  2  0  0  0
 11 12  1  0  0  0
 12 13  2  0  0  0
 13 14  1  0  0  0
 14 15  2  0  0  0
 15  8  1  0  0  0
  8  1  1  0  0  0
  1  2  2  0  0  0
  2  3  1  0  0  0
  3  4  2  0  0  0
  4  5  1  0  0  0
  4  6  1  0  0  0
  6 24  1  0  0  0
 24 26  1  0  0  0
 26 27  2  0  0  0
 27 28  1  0  0  0
 28 29  2  0  0  0
 29 30  1  0  0  0
 30 31  2  0  0  0
 31 32  1  0  0  0
 32 33  2  0  0  0
 32 34  2  0  0  0
 32 35  1  0  0  0
 35 36  1  0  0  0
 35 37  1  0  0  0
  6  7  2  0  0  0
 12 16  1  0  0  0
 16 17  1  0  0  0
 16 18  1  0  0  0
 16 19  1  0  0  0
 15 10  1  0  0  0
  7  1  1  0  0  0
 31 26  1  0  0  0
  8  9  1  0  0  0
 24 25  1  0  0  0
M  END
> <minimizedAffinity>
-5.62088

> <CNNscore>
0.1363496035

> <CNNaffinity>
5.5930433273

> <CNN_VS>
0.7626092434

> <CNNaffinity_variance>
0.1604924500

$$$$
[H]c1nc(N([H])c2c([H])c([H])c(C#N)c([H])c2OC([H])([H])[H])nc(N([H])c2c([H])c([H])c([H])c([H])c2S(=O)(=O)C([H])(C([H])([H])[H])C([H])([H])[H])c1Cl


 33 35  0  0  0  0  0  0  0  0999 V2000
   33.0166  -17.9826   35.3311 C   0  0  0  0  0  0  0  0  0  0  0  0
   32.0348  -18.5410   34.6289 N   0  0  0  0  0  0  0  0  0  0  0  0
   31.8127  -19.8556   34.5109 C   0  0  0  0  0  0  0  0  0  0  0  0
   32.7032  -20.6926   35.1939 C   0  0  0  0  0  0  0  0  0  0  0  0
   32.5026  -22.4158   35.1058 Cl  0  0  0  0  0  0  0  0  0  0  0  0
   33.7488  -20.1873   35.9448 C   0  0  0  0  0  0  0  0  0  0  0  0
   33.8347  -18.8541   35.9621 N   0  0  0  0  0  0  0  0  0  0  0  0
   33.2546  -16.5983   35.4584 N   0  0  0  0  0  0  0  0  0  0  0  0
   32.4621  -15.9463   35.1230 H   0  0  0  0  0  0  0  0  0  0  0  0
   34.3369  -14.5618   36.2320 C   0  0  0  0  0  0  0  0  0  0  0  0
   35.4006  -13.8572   36.7248 C   0  0  0  0  0  0  0  0  0  0  0  0
   36.5926  -14.4877   36.9844 C   0  0  0  0  0  0  0  0  0  0  0  0
   36.6909  -15.8333   36.7391 C   0  0  0  0  0  0  0  0  0  0  0  0
   35.5803  -16.5398   36.2305 C   0  0  0  0  0  0  0  0  0  0  0  0
   34.3786  -15.9432   35.9608 C   0  0  0  0  0  0  0  0  0  0  0  0
   32.6295  -12.8769   36.7618 C   0  0  0  0  0  0  0  0  0  0  0  0
   33.1400  -13.9088   35.9755 O   0  0  0  0  0  0  0  0  0  0  0  0
   37.7207  -13.7652   37.5018 C   0  0  0  0  0  0  0  0  0  0  0  0
   38.6365  -13.2017   37.9122 N   0  0  0  0  0  0  0  0  0  0  0  0
   34.5978  -21.0754   36.6078 N   0  0  0  0  0  0  0  0  0  0  0  0
   34.2123  -22.0675   36.7168 H   0  0  0  0  0  0  0  0  0  0  0  0
   35.8878  -20.9078   37.1468 C   0  0  0  0  0  0  0  0  0  0  0  0
   36.9576  -20.4468   36.4239 C   0  0  0  0  0  0  0  0  0  0  0  0
   38.2228  -20.3244   36.9646 C   0  0  0  0  0  0  0  0  0  0  0  0
   38.4247  -20.6747   38.2707 C   0  0  0  0  0  0  0  0  0  0  0  0
   37.3510  -21.1386   39.0018 C   0  0  0  0  0  0  0  0  0  0  0  0
   36.0838  -21.2638   38.4713 C   0  0  0  0  0  0  0  0  0  0  0  0
   34.8427  -21.8258   39.5433 S   0  0  0  0  0  0  0  0  0  0  0  0
   33.6411  -20.9492   39.6215 O   0  0  0  0  0  0  0  0  0  0  0  0
   34.3396  -23.1788   39.0582 O   0  0  0  0  0  0  0  0  0  0  0  0
   35.4180  -22.0994   41.1952 C   0  0  0  0  0  0  0  0  0  0  0  0
   34.5798  -21.3533   42.2114 C   0  0  0  0  0  0  0  0  0  0  0  0
   35.3025  -23.5759   41.5826 C   0  0  0  0  0  0  0  0  0  0  0  0
 16 17  1  0  0  0
 17 10  1  0  0  0
 10 11  2  0  0  0
 11 12  1  0  0  0
 12 13  2  0  0  0
 13 14  1  0  0  0
 14 15  2  0  0  0
 15  8  1  0  0  0
  8  1  1  0  0  0
  1  2  2  0  0  0
  2  3  1  0  0  0
  3  4  2  0  0  0
  4  5  1  0  0  0
  4  6  1  0  0  0
  6 20  1  0  0  0
 20 22  1  0  0  0
 22 23  2  0  0  0
 23 24  1  0  0  0
 24 25  2  0  0  0
 25 26  1  0  0  0
 26 27  2  0  0  0
 27 28  1  0  0  0
 28 29  2  0  0  0
 28 30  2  0  0  0
 28 31  1  0  0  0
 31 32  1  0  0  0
 31 33  1  0  0  0
  6  7  2  0  0  0
 12 18  1  0  0  0
 18 19  3  0  0  0
 15 10  1  0  0  0
  7  1  1  0  0  0
 27 22  1  0  0  0
  8  9  1  0  0  0
 20 21  1  0  0  0
M  END
> <minimizedAffinity>
-6.60506

> <CNNscore>
0.4527722299

> <CNNaffinity>
6.0872297287

> <CNN_VS>
2.7561285496

> <CNNaffinity_variance>
0.0998315364

$$$$
[H]c1nc(N([H])c2c([H])c([H])c(C#N)c([H])c2OC([H])([H])[H])nc(N([H])c2c([H])c([H])c([H])c([H])c2S(=O)(=O)C([H])(C([H])([H])[H])C([H])([H])[H])c1Cl


 33 35  0  0  0  0  0  0  0  0999 V2000
   32.9646  -17.9207   35.1700 C   0  0  0  0  0  0  0  0  0  0  0  0
   33.2429  -18.4225   33.9703 N   0  0  0  0  0  0  0  0  0  0  0  0
   33.0782  -19.6991   33.6035 C   0  0  0  0  0  0  0  0  0  0  0  0
   32.5684  -20.5589   34.5837 C   0  0  0  0  0  0  0  0  0  0  0  0
   32.3170  -22.2364   34.2094 Cl  0  0  0  0  0  0  0  0  0  0  0  0
   32.2549  -20.1120   35.8543 C   0  0  0  0  0  0  0  0  0  0  0  0
   32.4765  -18.8109   36.0624 N   0  0  0  0  0  0  0  0  0  0  0  0
   33.1363  -16.5765   35.5612 N   0  0  0  0  0  0  0  0  0  0  0  0
   32.2629  -15.9456   35.4927 H   0  0  0  0  0  0  0  0  0  0  0  0
   34.2787  -14.5516   36.2767 C   0  0  0  0  0  0  0  0  0  0  0  0
   35.3676  -13.8625   36.7351 C   0  0  0  0  0  0  0  0  0  0  0  0
   36.5507  -14.5147   36.9812 C   0  0  0  0  0  0  0  0  0  0  0  0
   36.6145  -15.8662   36.7576 C   0  0  0  0  0  0  0  0  0  0  0  0
   35.4783  -16.5564   36.2844 C   0  0  0  0  0  0  0  0  0  0  0  0
   34.2846  -15.9380   36.0289 C   0  0  0  0  0  0  0  0  0  0  0  0
   32.6219  -12.8178   36.8093 C   0  0  0  0  0  0  0  0  0  0  0  0
   33.0912  -13.8767   36.0333 O   0  0  0  0  0  0  0  0  0  0  0  0
   37.7048  -13.8087   37.4626 C   0  0  0  0  0  0  0  0  0  0  0  0
   38.6383  -13.2449   37.8306 N   0  0  0  0  0  0  0  0  0  0  0  0
   31.7434  -21.0187   36.7844 N   0  0  0  0  0  0  0  0  0  0  0  0
   32.4153  -21.2759   37.5764 H   0  0  0  0  0  0  0  0  0  0  0  0
   30.4871  -21.6473   36.8825 C   0  0  0  0  0  0  0  0  0  0  0  0
   29.3840  -21.2522   36.1708 C   0  0  0  0  0  0  0  0  0  0  0  0
   28.1521  -21.8615   36.3101 C   0  0  0  0  0  0  0  0  0  0  0  0
   28.0193  -22.8997   37.1899 C   0  0  0  0  0  0  0  0  0  0  0  0
   29.1268  -23.3007   37.9076 C   0  0  0  0  0  0  0  0  0  0  0  0
   30.3611  -22.6993   37.7752 C   0  0  0  0  0  0  0  0  0  0  0  0
   31.6537  -23.3564   38.7255 S   0  0  0  0  0  0  0  0  0  0  0  0
   32.5133  -22.3421   39.3968 O   0  0  0  0  0  0  0  0  0  0  0  0
   31.0677  -24.2098   39.8424 O   0  0  0  0  0  0  0  0  0  0  0  0
   32.7136  -24.4389   37.8093 C   0  0  0  0  0  0  0  0  0  0  0  0
   32.0194  -25.0005   36.5869 C   0  0  0  0  0  0  0  0  0  0  0  0
   33.9355  -23.6900   37.2712 C   0  0  0  0  0  0  0  0  0  0  0  0
 16 17  1  0  0  0
 17 10  1  0  0  0
 10 11  2  0  0  0
 11 12  1  0  0  0
 12 13  2  0  0  0
 13 14  1  0  0  0
 14 15  2  0  0  0
 15  8  1  0  0  0
  8  1  1  0  0  0
  1  2  2  0  0  0
  2  3  1  0  0  0
  3  4  2  0  0  0
  4  5  1  0  0  0
  4  6  1  0  0  0
  6 20  1  0  0  0
 20 22  1  0  0  0
 22 23  2  0  0  0
 23 24  1  0  0  0
 24 25  2  0  0  0
 25 26  1  0  0  0
 26 27  2  0  0  0
 27 28  1  0  0  0
 28 29  2  0  0  0
 28 30  2  0  0  0
 28 31  1  0  0  0
 31 32  1  0  0  0
 31 33  1  0  0  0
  6  7  2  0  0  0
 12 18  1  0  0  0
 18 19  3  0  0  0
 15 10  1  0  0  0
  7  1  1  0  0  0
 27 22  1  0  0  0
  8  9  1  0  0  0
 20 21  1  0  0  0
M  END
> <minimizedAffinity>
-6.67040

> <CNNscore>
0.4222953618

> <CNNaffinity>
5.9106569290

> <CNN_VS>
2.4960429668

> <CNNaffinity_variance>
0.2409193218

$$$$
[H]c1nc(N([H])c2c([H])c([H])c(C#N)c([H])c2OC([H])([H])[H])nc(N([H])c2c([H])c([H])c([H])c([H])c2S(=O)(=O)C([H])(C([H])([H])[H])C([H])([H])[H])c1Cl


 33 35  0  0  0  0  0  0  0  0999 V2000
   32.9550  -17.9000   35.2556 C   0  0  0  0  0  0  0  0  0  0  0  0
   32.7917  -18.4543   34.0578 N   0  0  0  0  0  0  0  0  0  0  0  0
   32.5948  -19.7573   33.8236 C   0  0  0  0  0  0  0  0  0  0  0  0
   32.5620  -20.5859   34.9516 C   0  0  0  0  0  0  0  0  0  0  0  0
   32.3120  -22.2938   34.7567 Cl  0  0  0  0  0  0  0  0  0  0  0  0
   32.7239  -20.0842   36.2300 C   0  0  0  0  0  0  0  0  0  0  0  0
   32.9110  -18.7628   36.2951 N   0  0  0  0  0  0  0  0  0  0  0  0
   33.1627  -16.5279   35.5073 N   0  0  0  0  0  0  0  0  0  0  0  0
   32.3287  -15.8744   35.2998 H   0  0  0  0  0  0  0  0  0  0  0  0
   34.2866  -14.5023   36.2495 C   0  0  0  0  0  0  0  0  0  0  0  0
   35.3672  -13.8107   36.7238 C   0  0  0  0  0  0  0  0  0  0  0  0
   36.5516  -14.4582   36.9762 C   0  0  0  0  0  0  0  0  0  0  0  0
   36.6252  -15.8075   36.7426 C   0  0  0  0  0  0  0  0  0  0  0  0
   35.4975  -16.5003   36.2531 C   0  0  0  0  0  0  0  0  0  0  0  0
   34.3028  -15.8866   35.9910 C   0  0  0  0  0  0  0  0  0  0  0  0
   32.5974  -12.8058   36.8000 C   0  0  0  0  0  0  0  0  0  0  0  0
   33.0977  -13.8322   36.0000 O   0  0  0  0  0  0  0  0  0  0  0  0
   37.6970  -13.7496   37.4742 C   0  0  0  0  0  0  0  0  0  0  0  0
   38.6175  -13.1733   37.8554 N   0  0  0  0  0  0  0  0  0  0  0  0
   32.6739  -20.9626   37.3139 N   0  0  0  0  0  0  0  0  0  0  0  0
   31.7581  -21.5079   37.4074 H   0  0  0  0  0  0  0  0  0  0  0  0
   33.6238  -21.2793   38.3040 C   0  0  0  0  0  0  0  0  0  0  0  0
   34.7717  -20.5590   38.5113 C   0  0  0  0  0  0  0  0  0  0  0  0
   35.7071  -20.9096   39.4654 C   0  0  0  0  0  0  0  0  0  0  0  0
   35.4873  -22.0166   40.2371 C   0  0  0  0  0  0  0  0  0  0  0  0
   34.3333  -22.7439   40.0321 C   0  0  0  0  0  0  0  0  0  0  0  0
   33.3930  -22.4018   39.0826 C   0  0  0  0  0  0  0  0  0  0  0  0
   31.9822  -23.4046   38.9868 S   0  0  0  0  0  0  0  0  0  0  0  0
   31.7066  -24.2130   40.2069 O   0  0  0  0  0  0  0  0  0  0  0  0
   30.7565  -22.5234   38.7861 O   0  0  0  0  0  0  0  0  0  0  0  0
   32.0029  -24.5087   37.6029 C   0  0  0  0  0  0  0  0  0  0  0  0
   32.5066  -25.8829   37.9897 C   0  0  0  0  0  0  0  0  0  0  0  0
   30.5910  -24.7355   37.0563 C   0  0  0  0  0  0  0  0  0  0  0  0
 16 17  1  0  0  0
 17 10  1  0  0  0
 10 11  2  0  0  0
 11 12  1  0  0  0
 12 13  2  0  0  0
 13 14  1  0  0  0
 14 15  2  0  0  0
 15  8  1  0  0  0
  8  1  1  0  0  0
  1  2  2  0  0  0
  2  3  1  0  0  0
  3  4  2  0  0  0
  4  5  1  0  0  0
  4  6  1  0  0  0
  6 20  1  0  0  0
 20 22  1  0  0  0
 22 23  2  0  0  0
 23 24  1  0  0  0
 24 25  2  0  0  0
 25 26  1  0  0  0
 26 27  2  0  0  0
 27 28  1  0  0  0
 28 29  2  0  0  0
 28 30  2  0  0  0
 28 31  1  0  0  0
 31 32  1  0  0  0
 31 33  1  0  0  0
  6  7  2  0  0  0
 12 18  1  0  0  0
 18 19  3  0  0  0
 15 10  1  0  0  0
  7  1  1  0  0  0
 27 22  1  0  0  0
  8  9  1  0  0  0
 20 21  1  0  0  0
M  END
> <minimizedAffinity>
-6.34074

> <CNNscore>
0.4069880843

> <CNNaffinity>
5.9034867287

> <CNN_VS>
2.4026486874

> <CNNaffinity_variance>
0.1658082902

$$$$
[H]c1nc(N([H])c2c([H])c([H])c(C#N)c([H])c2OC([H])([H])[H])nc(N([H])c2c([H])c([H])c([H])c([H])c2S(=O)(=O)C([H])(C([H])([H])[H])C([H])([H])[H])c1Cl


 33 35  0  0  0  0  0  0  0  0999 V2000
   31.8736  -18.8805   35.5391 C   0  0  0  0  0  0  0  0  0  0  0  0
   30.6509  -18.8379   35.0179 N   0  0  0  0  0  0  0  0  0  0  0  0
   29.7083  -19.7764   35.1665 C   0  0  0  0  0  0  0  0  0  0  0  0
   30.0645  -20.8872   35.9408 C   0  0  0  0  0  0  0  0  0  0  0  0
   28.9129  -22.1625   36.1954 Cl  0  0  0  0  0  0  0  0  0  0  0  0
   31.3166  -21.0040   36.5160 C   0  0  0  0  0  0  0  0  0  0  0  0
   32.1434  -19.9828   36.2735 N   0  0  0  0  0  0  0  0  0  0  0  0
   32.8700  -17.8942   35.3853 N   0  0  0  0  0  0  0  0  0  0  0  0
   32.5703  -16.8783   35.5946 H   0  0  0  0  0  0  0  0  0  0  0  0
   35.1762  -17.1213   35.4239 C   0  0  0  0  0  0  0  0  0  0  0  0
   36.4976  -17.2078   35.0816 C   0  0  0  0  0  0  0  0  0  0  0  0
   36.9437  -18.2311   34.2818 C   0  0  0  0  0  0  0  0  0  0  0  0
   36.0378  -19.1595   33.8367 C   0  0  0  0  0  0  0  0  0  0  0  0
   34.6793  -19.0501   34.2027 C   0  0  0  0  0  0  0  0  0  0  0  0
   34.2012  -18.0439   34.9974 C   0  0  0  0  0  0  0  0  0  0  0  0
   35.5959  -15.2244   36.9272 C   0  0  0  0  0  0  0  0  0  0  0  0
   34.7427  -16.0808   36.2327 O   0  0  0  0  0  0  0  0  0  0  0  0
   38.3269  -18.3388   33.9115 C   0  0  0  0  0  0  0  0  0  0  0  0
   39.4303  -18.4248   33.5956 N   0  0  0  0  0  0  0  0  0  0  0  0
   31.6071  -22.1338   37.2828 N   0  0  0  0  0  0  0  0  0  0  0  0
   31.1194  -22.1674   38.2346 H   0  0  0  0  0  0  0  0  0  0  0  0
   32.4165  -23.2563   37.0227 C   0  0  0  0  0  0  0  0  0  0  0  0
   31.9977  -24.3409   36.2962 C   0  0  0  0  0  0  0  0  0  0  0  0
   32.7974  -25.4471   36.0839 C   0  0  0  0  0  0  0  0  0  0  0  0
   34.0568  -25.4693   36.6157 C   0  0  0  0  0  0  0  0  0  0  0  0
   34.4823  -24.3798   37.3469 C   0  0  0  0  0  0  0  0  0  0  0  0
   33.6917  -23.2705   37.5640 C   0  0  0  0  0  0  0  0  0  0  0  0
   34.4000  -21.9750   38.4725 S   0  0  0  0  0  0  0  0  0  0  0  0
   33.4474  -21.2255   39.3380 O   0  0  0  0  0  0  0  0  0  0  0  0
   35.4561  -22.5432   39.4111 O   0  0  0  0  0  0  0  0  0  0  0  0
   35.2504  -20.7964   37.4614 C   0  0  0  0  0  0  0  0  0  0  0  0
   35.4784  -19.4910   38.1934 C   0  0  0  0  0  0  0  0  0  0  0  0
   36.6472  -21.2975   37.0853 C   0  0  0  0  0  0  0  0  0  0  0  0
 16 17  1  0  0  0
 17 10  1  0  0  0
 10 11  2  0  0  0
 11 12  1  0  0  0
 12 13  2  0  0  0
 13 14  1  0  0  0
 14 15  2  0  0  0
 15  8  1  0  0  0
  8  1  1  0  0  0
  1  2  2  0  0  0
  2  3  1  0  0  0
  3  4  2  0  0  0
  4  5  1  0  0  0
  4  6  1  0  0  0
  6 20  1  0  0  0
 20 22  1  0  0  0
 22 23  2  0  0  0
 23 24  1  0  0  0
 24 25  2  0  0  0
 25 26  1  0  0  0
 26 27  2  0  0  0
 27 28  1  0  0  0
 28 29  2  0  0  0
 28 30  2  0  0  0
 28 31  1  0  0  0
 31 32  1  0  0  0
 31 33  1  0  0  0
  6  7  2  0  0  0
 12 18  1  0  0  0
 18 19  3  0  0  0
 15 10  1  0  0  0
  7  1  1  0  0  0
 27 22  1  0  0  0
  8  9  1  0  0  0
 20 21  1  0  0  0
M  END
> <minimizedAffinity>
-5.85664

> <CNNscore>
0.3977562487

> <CNNaffinity>
5.8495445251

> <CNN_VS>
2.3266928196

> <CNNaffinity_variance>
0.4622270465

$$$$
[H]c1nc(N([H])c2c([H])c([H])c(C#N)c([H])c2OC([H])([H])[H])nc(N([H])c2c([H])c([H])c([H])c([H])c2S(=O)(=O)C([H])(C([H])([H])[H])C([H])([H])[H])c1Cl


 33 35  0  0  0  0  0  0  0  0999 V2000
   32.8916  -17.9628   35.2424 C   0  0  0  0  0  0  0  0  0  0  0  0
   32.5434  -18.3480   34.0181 N   0  0  0  0  0  0  0  0  0  0  0  0
   32.3609  -19.6136   33.6229 C   0  0  0  0  0  0  0  0  0  0  0  0
   32.5595  -20.5967   34.5998 C   0  0  0  0  0  0  0  0  0  0  0  0
   32.3479  -22.2713   34.1896 Cl  0  0  0  0  0  0  0  0  0  0  0  0
   32.9227  -20.2751   35.8948 C   0  0  0  0  0  0  0  0  0  0  0  0
   33.0652  -18.9676   36.1297 N   0  0  0  0  0  0  0  0  0  0  0  0
   33.0850  -16.6306   35.6635 N   0  0  0  0  0  0  0  0  0  0  0  0
   32.2118  -15.9959   35.6505 H   0  0  0  0  0  0  0  0  0  0  0  0
   34.2821  -14.6183   36.3227 C   0  0  0  0  0  0  0  0  0  0  0  0
   35.3934  -13.9445   36.7493 C   0  0  0  0  0  0  0  0  0  0  0  0
   36.5670  -14.6171   36.9853 C   0  0  0  0  0  0  0  0  0  0  0  0
   36.5987  -15.9733   36.7841 C   0  0  0  0  0  0  0  0  0  0  0  0
   35.4399  -16.6474   36.3437 C   0  0  0  0  0  0  0  0  0  0  0  0
   34.2548  -16.0085   36.0991 C   0  0  0  0  0  0  0  0  0  0  0  0
   32.6932  -12.8141   36.8274 C   0  0  0  0  0  0  0  0  0  0  0  0
   33.1046  -13.9228   36.0891 O   0  0  0  0  0  0  0  0  0  0  0  0
   37.7442  -13.9274   37.4333 C   0  0  0  0  0  0  0  0  0  0  0  0
   38.6899  -13.3670   37.7742 N   0  0  0  0  0  0  0  0  0  0  0  0
   33.0986  -21.3022   36.8238 N   0  0  0  0  0  0  0  0  0  0  0  0
   34.1175  -21.5766   37.0015 H   0  0  0  0  0  0  0  0  0  0  0  0
   32.1737  -22.0362   37.5911 C   0  0  0  0  0  0  0  0  0  0  0  0
   30.8583  -22.1990   37.2408 C   0  0  0  0  0  0  0  0  0  0  0  0
   29.9601  -22.8936   38.0276 C   0  0  0  0  0  0  0  0  0  0  0  0
   30.3916  -23.4430   39.2030 C   0  0  0  0  0  0  0  0  0  0  0  0
   31.7145  -23.2818   39.5589 C   0  0  0  0  0  0  0  0  0  0  0  0
   32.6191  -22.5907   38.7799 C   0  0  0  0  0  0  0  0  0  0  0  0
   34.2514  -22.5193   39.3596 S   0  0  0  0  0  0  0  0  0  0  0  0
   34.6022  -23.5586   40.3671 O   0  0  0  0  0  0  0  0  0  0  0  0
   35.2052  -22.7333   38.1919 O   0  0  0  0  0  0  0  0  0  0  0  0
   34.6825  -20.9427   40.0400 C   0  0  0  0  0  0  0  0  0  0  0  0
   35.5609  -21.0821   41.2650 C   0  0  0  0  0  0  0  0  0  0  0  0
   35.5044  -20.1184   39.0457 C   0  0  0  0  0  0  0  0  0  0  0  0
 16 17  1  0  0  0
 17 10  1  0  0  0
 10 11  2  0  0  0
 11 12  1  0  0  0
 12 13  2  0  0  0
 13 14  1  0  0  0
 14 15  2  0  0  0
 15  8  1  0  0  0
  8  1  1  0  0  0
  1  2  2  0  0  0
  2  3  1  0  0  0
  3  4  2  0  0  0
  4  5  1  0  0  0
  4  6  1  0  0  0
  6 20  1  0  0  0
 20 22  1  0  0  0
 22 23  2  0  0  0
 23 24  1  0  0  0
 24 25  2  0  0  0
 25 26  1  0  0  0
 26 27  2  0  0  0
 27 28  1  0  0  0
 28 29  2  0  0  0
 28 30  2  0  0  0
 28 31  1  0  0  0
 31 32  1  0  0  0
 31 33  1  0  0  0
  6  7  2  0  0  0
 12 18  1  0  0  0
 18 19  3  0  0  0
 15 10  1  0  0  0
  7  1  1  0  0  0
 27 22  1  0  0  0
  8  9  1  0  0  0
 20 21  1  0  0  0
M  END
> <minimizedAffinity>
-6.07300

> <CNNscore>
0.3888135254

> <CNNaffinity>
5.8280496597

> <CNN_VS>
2.2660245895

> <CNNaffinity_variance>
0.1381513178

$$$$
[H]c1nc(N([H])c2c([H])c([H])c(C#N)c([H])c2OC([H])([H])[H])nc(N([H])c2c([H])c([H])c([H])c([H])c2S(=O)(=O)C([H])(C([H])([H])[H])C([H])([H])[H])c1Cl


 33 35  0  0  0  0  0  0  0  0999 V2000
   32.6598  -18.4542   35.3369 C   0  0  0  0  0  0  0  0  0  0  0  0
   31.5126  -18.9854   34.9241 N   0  0  0  0  0  0  0  0  0  0  0  0
   30.9937  -20.1436   35.3491 C   0  0  0  0  0  0  0  0  0  0  0  0
   31.7410  -20.8354   36.3098 C   0  0  0  0  0  0  0  0  0  0  0  0
   31.1554  -22.3496   36.9277 Cl  0  0  0  0  0  0  0  0  0  0  0  0
   32.9433  -20.3479   36.7885 C   0  0  0  0  0  0  0  0  0  0  0  0
   33.3240  -19.1794   36.2643 N   0  0  0  0  0  0  0  0  0  0  0  0
   33.2105  -17.2343   34.8920 N   0  0  0  0  0  0  0  0  0  0  0  0
   32.8463  -16.8650   33.9452 H   0  0  0  0  0  0  0  0  0  0  0  0
   35.5348  -16.7605   35.4307 C   0  0  0  0  0  0  0  0  0  0  0  0
   36.5256  -16.0154   36.0086 C   0  0  0  0  0  0  0  0  0  0  0  0
   36.2198  -14.8745   36.7090 C   0  0  0  0  0  0  0  0  0  0  0  0
   34.9043  -14.5017   36.8150 C   0  0  0  0  0  0  0  0  0  0  0  0
   33.8989  -15.2860   36.2105 C   0  0  0  0  0  0  0  0  0  0  0  0
   34.1684  -16.4277   35.5059 C   0  0  0  0  0  0  0  0  0  0  0  0
   37.1573  -18.2430   34.3333 C   0  0  0  0  0  0  0  0  0  0  0  0
   35.8618  -17.9104   34.7267 O   0  0  0  0  0  0  0  0  0  0  0  0
   37.2458  -14.0792   37.3228 C   0  0  0  0  0  0  0  0  0  0  0  0
   38.0820  -13.4529   37.8058 N   0  0  0  0  0  0  0  0  0  0  0  0
   33.6370  -21.0827   37.7517 N   0  0  0  0  0  0  0  0  0  0  0  0
   33.0418  -21.7896   38.2911 H   0  0  0  0  0  0  0  0  0  0  0  0
   34.9925  -21.0774   38.1332 C   0  0  0  0  0  0  0  0  0  0  0  0
   36.0292  -20.9446   37.2461 C   0  0  0  0  0  0  0  0  0  0  0  0
   37.3530  -20.9781   37.6394 C   0  0  0  0  0  0  0  0  0  0  0  0
   37.6494  -21.1503   38.9630 C   0  0  0  0  0  0  0  0  0  0  0  0
   36.6092  -21.2838   39.8590 C   0  0  0  0  0  0  0  0  0  0  0  0
   35.2844  -21.2510   39.4764 C   0  0  0  0  0  0  0  0  0  0  0  0
   34.1052  -21.3947   40.7390 S   0  0  0  0  0  0  0  0  0  0  0  0
   33.5858  -20.0992   41.2587 O   0  0  0  0  0  0  0  0  0  0  0  0
   32.8922  -22.1453   40.2057 O   0  0  0  0  0  0  0  0  0  0  0  0
   34.6757  -22.3400   42.1230 C   0  0  0  0  0  0  0  0  0  0  0  0
   35.0323  -21.4544   43.2979 C   0  0  0  0  0  0  0  0  0  0  0  0
   33.5810  -23.2764   42.6410 C   0  0  0  0  0  0  0  0  0  0  0  0
 16 17  1  0  0  0
 17 10  1  0  0  0
 10 11  2  0  0  0
 11 12  1  0  0  0
 12 13  2  0  0  0
 13 14  1  0  0  0
 14 15  2  0  0  0
 15  8  1  0  0  0
  8  1  1  0  0  0
  1  2  2  0  0  0
  2  3  1  0  0  0
  3  4  2  0  0  0
  4  5  1  0  0  0
  4  6  1  0  0  0
  6 20  1  0  0  0
 20 22  1  0  0  0
 22 23  2  0  0  0
 23 24  1  0  0  0
 24 25  2  0  0  0
 25 26  1  0  0  0
 26 27  2  0  0  0
 27 28  1  0  0  0
 28 29  2  0  0  0
 28 30  2  0  0  0
 28 31  1  0  0  0
 31 32  1  0  0  0
 31 33  1  0  0  0
  6  7  2  0  0  0
 12 18  1  0  0  0
 18 19  3  0  0  0
 15 10  1  0  0  0
  7  1  1  0  0  0
 27 22  1  0  0  0
  8  9  1  0  0  0
 20 21  1  0  0  0
M  END
> <minimizedAffinity>
-6.44144

> <CNNscore>
0.3641911745

> <CNNaffinity>
5.7835488319

> <CNN_VS>
2.1063175201

> <CNNaffinity_variance>
0.4323118627

$$$$
[H]c1nc(N([H])c2c([H])c([H])c(C#N)c([H])c2OC([H])([H])[H])nc(N([H])c2c([H])c([H])c([H])c([H])c2S(=O)(=O)C([H])(C([H])([H])[H])C([H])([H])[H])c1Cl


 33 35  0  0  0  0  0  0  0  0999 V2000
   37.1239  -17.8430   36.4664 C   0  0  0  0  0  0  0  0  0  0  0  0
   38.2744  -18.5043   36.3787 N   0  0  0  0  0  0  0  0  0  0  0  0
   38.5441  -19.6776   36.9636 C   0  0  0  0  0  0  0  0  0  0  0  0
   37.5113  -20.2352   37.7266 C   0  0  0  0  0  0  0  0  0  0  0  0
   37.7591  -21.7566   38.5275 Cl  0  0  0  0  0  0  0  0  0  0  0  0
   36.2867  -19.6080   37.8655 C   0  0  0  0  0  0  0  0  0  0  0  0
   36.1758  -18.4437   37.2196 N   0  0  0  0  0  0  0  0  0  0  0  0
   36.8350  -16.6067   35.8520 N   0  0  0  0  0  0  0  0  0  0  0  0
   37.3987  -16.3749   34.9609 H   0  0  0  0  0  0  0  0  0  0  0  0
   36.3258  -14.5321   37.0156 C   0  0  0  0  0  0  0  0  0  0  0  0
   35.4787  -13.5395   37.4253 C   0  0  0  0  0  0  0  0  0  0  0  0
   34.1499  -13.5725   37.0807 C   0  0  0  0  0  0  0  0  0  0  0  0
   33.6944  -14.6189   36.3201 C   0  0  0  0  0  0  0  0  0  0  0  0
   34.5867  -15.6317   35.9089 C   0  0  0  0  0  0  0  0  0  0  0  0
   35.9160  -15.6299   36.2343 C   0  0  0  0  0  0  0  0  0  0  0  0
   38.3499  -13.3066   37.6759 C   0  0  0  0  0  0  0  0  0  0  0  0
   37.6655  -14.4829   37.3730 O   0  0  0  0  0  0  0  0  0  0  0  0
   33.2449  -12.5399   37.5011 C   0  0  0  0  0  0  0  0  0  0  0  0
   32.5125  -11.7244   37.8522 N   0  0  0  0  0  0  0  0  0  0  0  0
   35.2954  -20.2199   38.6348 N   0  0  0  0  0  0  0  0  0  0  0  0
   35.2122  -19.8502   39.6355 H   0  0  0  0  0  0  0  0  0  0  0  0
   34.3641  -21.2301   38.3262 C   0  0  0  0  0  0  0  0  0  0  0  0
   34.1223  -21.6747   37.0521 C   0  0  0  0  0  0  0  0  0  0  0  0
   33.1778  -22.6421   36.7692 C   0  0  0  0  0  0  0  0  0  0  0  0
   32.4514  -23.1823   37.7939 C   0  0  0  0  0  0  0  0  0  0  0  0
   32.6919  -22.7381   39.0774 C   0  0  0  0  0  0  0  0  0  0  0  0
   33.6332  -21.7732   39.3703 C   0  0  0  0  0  0  0  0  0  0  0  0
   33.8327  -21.3619   41.0425 S   0  0  0  0  0  0  0  0  0  0  0  0
   34.0160  -19.9083   41.3105 O   0  0  0  0  0  0  0  0  0  0  0  0
   32.5827  -21.7719   41.8096 O   0  0  0  0  0  0  0  0  0  0  0  0
   35.1691  -22.2252   41.8193 C   0  0  0  0  0  0  0  0  0  0  0  0
   35.6000  -23.4324   41.0137 C   0  0  0  0  0  0  0  0  0  0  0  0
   36.4145  -21.3406   41.9185 C   0  0  0  0  0  0  0  0  0  0  0  0
 16 17  1  0  0  0
 17 10  1  0  0  0
 10 11  2  0  0  0
 11 12  1  0  0  0
 12 13  2  0  0  0
 13 14  1  0  0  0
 14 15  2  0  0  0
 15  8  1  0  0  0
  8  1  1  0  0  0
  1  2  2  0  0  0
  2  3  1  0  0  0
  3  4  2  0  0  0
  4  5  1  0  0  0
  4  6  1  0  0  0
  6 20  1  0  0  0
 20 22  1  0  0  0
 22 23  2  0  0  0
 23 24  1  0  0  0
 24 25  2  0  0  0
 25 26  1  0  0  0
 26 27  2  0  0  0
 27 28  1  0  0  0
 28 29  2  0  0  0
 28 30  2  0  0  0
 28 31  1  0  0  0
 31 32  1  0  0  0
 31 33  1  0  0  0
  6  7  2  0  0  0
 12 18  1  0  0  0
 18 19  3  0  0  0
 15 10  1  0  0  0
  7  1  1  0  0  0
 27 22  1  0  0  0
  8  9  1  0  0  0
 20 21  1  0  0  0
M  END
> <minimizedAffinity>
-6.38328

> <CNNscore>
0.3593713343

> <CNNaffinity>
5.9516167641

> <CNN_VS>
2.1388404369

> <CNNaffinity_variance>
0.1364576370

$$$$
[H]c1nc(N([H])c2c([H])c([H])c(C#N)c([H])c2OC([H])([H])[H])nc(N([H])c2c([H])c([H])c([H])c([H])c2S(=O)(=O)C([H])(C([H])([H])[H])C([H])([H])[H])c1Cl


 33 35  0  0  0  0  0  0  0  0999 V2000
   33.1247  -18.0594   35.3267 C   0  0  0  0  0  0  0  0  0  0  0  0
   32.1407  -18.6529   34.6573 N   0  0  0  0  0  0  0  0  0  0  0  0
   31.9189  -19.9718   34.6067 C   0  0  0  0  0  0  0  0  0  0  0  0
   32.8124  -20.7729   35.3278 C   0  0  0  0  0  0  0  0  0  0  0  0
   32.6125  -22.4985   35.3275 Cl  0  0  0  0  0  0  0  0  0  0  0  0
   33.8605  -20.2300   36.0482 C   0  0  0  0  0  0  0  0  0  0  0  0
   33.9457  -18.8976   35.9979 N   0  0  0  0  0  0  0  0  0  0  0  0
   33.3624  -16.6703   35.3831 N   0  0  0  0  0  0  0  0  0  0  0  0
   32.5918  -16.0384   34.9678 H   0  0  0  0  0  0  0  0  0  0  0  0
   34.3733  -14.6139   36.1994 C   0  0  0  0  0  0  0  0  0  0  0  0
   35.4108  -13.8840   36.7110 C   0  0  0  0  0  0  0  0  0  0  0  0
   36.6214  -14.4797   36.9661 C   0  0  0  0  0  0  0  0  0  0  0  0
   36.7651  -15.8168   36.6972 C   0  0  0  0  0  0  0  0  0  0  0  0
   35.6809  -16.5498   36.1696 C   0  0  0  0  0  0  0  0  0  0  0  0
   34.4617  -15.9880   35.9037 C   0  0  0  0  0  0  0  0  0  0  0  0
   32.6625  -12.9180   36.6808 C   0  0  0  0  0  0  0  0  0  0  0  0
   33.1570  -13.9958   35.9477 O   0  0  0  0  0  0  0  0  0  0  0  0
   37.7224  -13.7303   37.5030 C   0  0  0  0  0  0  0  0  0  0  0  0
   38.6172  -13.1392   37.9209 N   0  0  0  0  0  0  0  0  0  0  0  0
   34.7124  -21.0831   36.7520 N   0  0  0  0  0  0  0  0  0  0  0  0
   35.2606  -21.7717   36.1436 H   0  0  0  0  0  0  0  0  0  0  0  0
   34.9994  -21.1910   38.1264 C   0  0  0  0  0  0  0  0  0  0  0  0
   34.0359  -21.2976   39.0959 C   0  0  0  0  0  0  0  0  0  0  0  0
   34.3401  -21.3663   40.4417 C   0  0  0  0  0  0  0  0  0  0  0  0
   35.6504  -21.3270   40.8303 C   0  0  0  0  0  0  0  0  0  0  0  0
   36.6229  -21.2202   39.8580 C   0  0  0  0  0  0  0  0  0  0  0  0
   36.3295  -21.1517   38.5118 C   0  0  0  0  0  0  0  0  0  0  0  0
   37.6768  -21.0601   37.4247 S   0  0  0  0  0  0  0  0  0  0  0  0
   39.0017  -21.3332   38.0479 O   0  0  0  0  0  0  0  0  0  0  0  0
   37.5077  -22.1069   36.3316 O   0  0  0  0  0  0  0  0  0  0  0  0
   37.7887  -19.5080   36.5804 C   0  0  0  0  0  0  0  0  0  0  0  0
   39.1802  -18.9190   36.6723 C   0  0  0  0  0  0  0  0  0  0  0  0
   37.5184  -19.6734   35.0827 C   0  0  0  0  0  0  0  0  0  0  0  0
 16 17  1  0  0  0
 17 10  1  0  0  0
 10 11  2  0  0  0
 11 12  1  0  0  0
 12 13  2  0  0  0
 13 14  1  0  0  0
 14 15  2  0  0  0
 15  8  1  0  0  0
  8  1  1  0  0  0
  1  2  2  0  0  0
  2  3  1  0  0  0
  3  4  2  0  0  0
  4  5  1  0  0  0
  4  6  1  0  0  0
  6 20  1  0  0  0
 20 22  1  0  0  0
 22 23  2  0  0  0
 23 24  1  0  0  0
 24 25  2  0  0  0
 25 26  1  0  0  0
 26 27  2  0  0  0
 27 28  1  0  0  0
 28 29  2  0  0  0
 28 30  2  0  0  0
 28 31  1  0  0  0
 31 32  1  0  0  0
 31 33  1  0  0  0
  6  7  2  0  0  0
 12 18  1  0  0  0
 18 19  3  0  0  0
 15 10  1  0  0  0
  7  1  1  0  0  0
 27 22  1  0  0  0
  8  9  1  0  0  0
 20 21  1  0  0  0
M  END
> <minimizedAffinity>
-6.50624

> <CNNscore>
0.3580702841

> <CNNaffinity>
6.0618314743

> <CNN_VS>
2.1705617905

> <CNNaffinity_variance>
0.2015253305

$$$$
[H]c1nc(N([H])c2c([H])c([H])c(C#N)c([H])c2OC([H])([H])[H])nc(N([H])c2c([H])c([H])c([H])c([H])c2S(=O)(=O)C([H])(C([H])([H])[H])C([H])([H])[H])c1Cl


 33 35  0  0  0  0  0  0  0  0999 V2000
   32.9942  -17.9155   35.2459 C   0  0  0  0  0  0  0  0  0  0  0  0
   32.1203  -18.4640   34.4068 N   0  0  0  0  0  0  0  0  0  0  0  0
   31.9090  -19.7764   34.2514 C   0  0  0  0  0  0  0  0  0  0  0  0
   32.6861  -20.6226   35.0515 C   0  0  0  0  0  0  0  0  0  0  0  0
   32.4890  -22.3439   34.9268 Cl  0  0  0  0  0  0  0  0  0  0  0  0
   33.6157  -20.1279   35.9478 C   0  0  0  0  0  0  0  0  0  0  0  0
   33.7069  -18.7954   35.9840 N   0  0  0  0  0  0  0  0  0  0  0  0
   33.2204  -16.5334   35.4132 N   0  0  0  0  0  0  0  0  0  0  0  0
   32.4085  -15.8806   35.1299 H   0  0  0  0  0  0  0  0  0  0  0  0
   34.2905  -14.5267   36.2763 C   0  0  0  0  0  0  0  0  0  0  0  0
   35.3623  -13.8268   36.7582 C   0  0  0  0  0  0  0  0  0  0  0  0
   36.5854  -14.4356   36.8970 C   0  0  0  0  0  0  0  0  0  0  0  0
   36.7062  -15.7550   36.5431 C   0  0  0  0  0  0  0  0  0  0  0  0
   35.5867  -16.4571   36.0482 C   0  0  0  0  0  0  0  0  0  0  0  0
   34.3544  -15.8816   35.8972 C   0  0  0  0  0  0  0  0  0  0  0  0
   32.6683  -12.7871   36.8904 C   0  0  0  0  0  0  0  0  0  0  0  0
   33.0621  -13.8959   36.1425 O   0  0  0  0  0  0  0  0  0  0  0  0
   37.7223  -13.7176   37.4009 C   0  0  0  0  0  0  0  0  0  0  0  0
   38.6221  -13.1261   37.8075 N   0  0  0  0  0  0  0  0  0  0  0  0
   34.3543  -21.0247   36.7219 N   0  0  0  0  0  0  0  0  0  0  0  0
   33.8194  -21.8993   37.0279 H   0  0  0  0  0  0  0  0  0  0  0  0
   35.6919  -20.9977   37.1612 C   0  0  0  0  0  0  0  0  0  0  0  0
   36.5235  -19.9208   36.9932 C   0  0  0  0  0  0  0  0  0  0  0  0
   37.8434  -19.9302   37.4006 C   0  0  0  0  0  0  0  0  0  0  0  0
   38.3480  -21.0533   37.9952 C   0  0  0  0  0  0  0  0  0  0  0  0
   37.5145  -22.1390   38.1665 C   0  0  0  0  0  0  0  0  0  0  0  0
   36.1952  -22.1392   37.7638 C   0  0  0  0  0  0  0  0  0  0  0  0
   35.2807  -23.5749   38.0926 S   0  0  0  0  0  0  0  0  0  0  0  0
   35.8630  -24.4600   39.1393 O   0  0  0  0  0  0  0  0  0  0  0  0
   33.9003  -23.1814   38.6014 O   0  0  0  0  0  0  0  0  0  0  0  0
   34.9903  -24.5629   36.6525 C   0  0  0  0  0  0  0  0  0  0  0  0
   36.0695  -25.6075   36.4625 C   0  0  0  0  0  0  0  0  0  0  0  0
   33.6837  -25.3507   36.7777 C   0  0  0  0  0  0  0  0  0  0  0  0
 16 17  1  0  0  0
 17 10  1  0  0  0
 10 11  2  0  0  0
 11 12  1  0  0  0
 12 13  2  0  0  0
 13 14  1  0  0  0
 14 15  2  0  0  0
 15  8  1  0  0  0
  8  1  1  0  0  0
  1  2  2  0  0  0
  2  3  1  0  0  0
  3  4  2  0  0  0
  4  5  1  0  0  0
  4  6  1  0  0  0
  6 20  1  0  0  0
 20 22  1  0  0  0
 22 23  2  0  0  0
 23 24  1  0  0  0
 24 25  2  0  0  0
 25 26  1  0  0  0
 26 27  2  0  0  0
 27 28  1  0  0  0
 28 29  2  0  0  0
 28 30  2  0  0  0
 28 31  1  0  0  0
 31 32  1  0  0  0
 31 33  1  0  0  0
  6  7  2  0  0  0
 12 18  1  0  0  0
 18 19  3  0  0  0
 15 10  1  0  0  0
  7  1  1  0  0  0
 27 22  1  0  0  0
  8  9  1  0  0  0
 20 21  1  0  0  0
M  END
> <minimizedAffinity>
-6.18502

> <CNNscore>
0.3208958507

> <CNNaffinity>
6.0090560913

> <CNN_VS>
1.9282811880

> <CNNaffinity_variance>
0.2162378728

$$$$
[H]c1nc(N([H])c2c([H])c([H])c(C#N)c([H])c2OC([H])(C([H])([H])[H])C([H])([H])[H])nc(N([H])c2c([H])c([H])c([H])c([H])c2S(=O)(=O)C([H])(C([H])([H])[H])C([H])([H])[H])c1Cl


 35 37  0  0  0  0  0  0  0  0999 V2000
   33.0019  -17.7415   35.3307 C   0  0  0  0  0  0  0  0  0  0  0  0
   32.3370  -18.1413   34.2437 N   0  0  0  0  0  0  0  0  0  0  0  0
   32.1312  -19.4183   33.9168 C   0  0  0  0  0  0  0  0  0  0  0  0
   32.6155  -20.4258   34.7192 C   0  0  0  0  0  0  0  0  0  0  0  0
   32.3464  -22.1055   34.2920 Cl  0  0  0  0  0  0  0  0  0  0  0  0
   33.3223  -20.0483   35.8753 C   0  0  0  0  0  0  0  0  0  0  0  0
   33.4651  -18.7602   36.0987 N   0  0  0  0  0  0  0  0  0  0  0  0
   33.2302  -16.4082   35.6916 N   0  0  0  0  0  0  0  0  0  0  0  0
   32.3661  -15.7816   35.6231 H   0  0  0  0  0  0  0  0  0  0  0  0
   34.3583  -14.4887   36.6345 C   0  0  0  0  0  0  0  0  0  0  0  0
   35.4864  -13.8349   37.0754 C   0  0  0  0  0  0  0  0  0  0  0  0
   36.7205  -14.4536   37.0294 C   0  0  0  0  0  0  0  0  0  0  0  0
   36.7984  -15.7273   36.5376 C   0  0  0  0  0  0  0  0  0  0  0  0
   35.6547  -16.4056   36.0844 C   0  0  0  0  0  0  0  0  0  0  0  0
   34.4158  -15.8191   36.1168 C   0  0  0  0  0  0  0  0  0  0  0  0
   37.8615  -13.7266   37.5016 C   0  0  0  0  0  0  0  0  0  0  0  0
   38.7962  -13.1533   37.8924 N   0  0  0  0  0  0  0  0  0  0  0  0
   33.1069  -13.9270   36.6550 O   0  0  0  0  0  0  0  0  0  0  0  0
   31.4814  -12.1448   36.7917 C   0  0  0  0  0  0  0  0  0  0  0  0
   32.7757  -12.7726   37.3226 C   0  0  0  0  0  0  0  0  0  0  0  0
   32.4471  -13.0929   38.7959 C   0  0  0  0  0  0  0  0  0  0  0  0
   33.8133  -21.0920   36.6854 N   0  0  0  0  0  0  0  0  0  0  0  0
   33.9593  -22.0104   36.1598 H   0  0  0  0  0  0  0  0  0  0  0  0
   34.1065  -21.0097   38.0573 C   0  0  0  0  0  0  0  0  0  0  0  0
   35.0388  -20.1865   38.6497 C   0  0  0  0  0  0  0  0  0  0  0  0
   35.2419  -20.1949   40.0367 C   0  0  0  0  0  0  0  0  0  0  0  0
   34.5244  -21.0193   40.8596 C   0  0  0  0  0  0  0  0  0  0  0  0
   33.5938  -21.8423   40.2761 C   0  0  0  0  0  0  0  0  0  0  0  0
   33.3770  -21.8512   38.9179 C   0  0  0  0  0  0  0  0  0  0  0  0
   32.1944  -22.9298   38.2717 S   0  0  0  0  0  0  0  0  0  0  0  0
   31.0313  -22.1280   37.7519 O   0  0  0  0  0  0  0  0  0  0  0  0
   32.7052  -23.7864   37.1601 O   0  0  0  0  0  0  0  0  0  0  0  0
   31.5020  -23.9842   39.5447 C   0  0  0  0  0  0  0  0  0  0  0  0
   31.3174  -25.4033   38.9807 C   0  0  0  0  0  0  0  0  0  0  0  0
   30.1158  -23.4800   39.8469 C   0  0  0  0  0  0  0  0  0  0  0  0
 19 20  1  0  0  0
 20 21  1  0  0  0
 20 18  1  0  0  0
 18 10  1  0  0  0
 10 11  2  0  0  0
 11 12  1  0  0  0
 12 13  2  0  0  0
 13 14  1  0  0  0
 14 15  2  0  0  0
 15  8  1  0  0  0
  8  1  1  0  0  0
  1  2  2  0  0  0
  2  3  1  0  0  0
  3  4  2  0  0  0
  4  5  1  0  0  0
  4  6  1  0  0  0
  6 22  1  0  0  0
 22 24  1  0  0  0
 24 25  2  0  0  0
 25 26  1  0  0  0
 26 27  2  0  0  0
 27 28  1  0  0  0
 28 29  2  0  0  0
 29 30  1  0  0  0
 30 31  2  0  0  0
 30 32  2  0  0  0
 30 33  1  0  0  0
 33 34  1  0  0  0
 33 35  1  0  0  0
  6  7  2  0  0  0
 12 16  1  0  0  0
 16 17  3  0  0  0
 15 10  1  0  0  0
  7  1  1  0  0  0
 29 24  1  0  0  0
  8  9  1  0  0  0
 22 23  1  0  0  0
M  END
> <minimizedAffinity>
-6.47638

> <CNNscore>
0.4916128218

> <CNNaffinity>
6.1746792793

> <CNN_VS>
3.0355515480

> <CNNaffinity_variance>
0.0716521591

$$$$
[H]c1nc(N([H])c2c([H])c([H])c(C#N)c([H])c2OC([H])(C([H])([H])[H])C([H])([H])[H])nc(N([H])c2c([H])c([H])c([H])c([H])c2S(=O)(=O)C([H])(C([H])([H])[H])C([H])([H])[H])c1Cl


 35 37  0  0  0  0  0  0  0  0999 V2000
   33.4724  -12.9707   36.7382 C   0  0  0  0  0  0  0  0  0  0  0  0
   34.5748  -12.2648   37.0031 N   0  0  0  0  0  0  0  0  0  0  0  0
   35.7874  -12.7979   37.1623 C   0  0  0  0  0  0  0  0  0  0  0  0
   35.9659  -14.1581   37.0564 C   0  0  0  0  0  0  0  0  0  0  0  0
   37.5589  -14.8616   37.2653 Cl  0  0  0  0  0  0  0  0  0  0  0  0
   34.8299  -14.9395   36.7779 C   0  0  0  0  0  0  0  0  0  0  0  0
   33.6847  -14.3076   36.6406 N   0  0  0  0  0  0  0  0  0  0  0  0
   32.1913  -12.4322   36.5687 N   0  0  0  0  0  0  0  0  0  0  0  0
   31.9336  -12.2262   35.5513 H   0  0  0  0  0  0  0  0  0  0  0  0
   30.7253  -10.8104   37.6017 C   0  0  0  0  0  0  0  0  0  0  0  0
   29.7828  -10.4417   38.5345 C   0  0  0  0  0  0  0  0  0  0  0  0
   29.3028  -11.3587   39.4491 C   0  0  0  0  0  0  0  0  0  0  0  0
   29.7824  -12.6387   39.4089 C   0  0  0  0  0  0  0  0  0  0  0  0
   30.7444  -13.0279   38.4620 C   0  0  0  0  0  0  0  0  0  0  0  0
   31.2407  -12.1415   37.5410 C   0  0  0  0  0  0  0  0  0  0  0  0
   28.3222  -10.9205   40.3977 C   0  0  0  0  0  0  0  0  0  0  0  0
   27.5388  -10.5506   41.1753 N   0  0  0  0  0  0  0  0  0  0  0  0
   31.2393   -9.9456   36.6691 O   0  0  0  0  0  0  0  0  0  0  0  0
   33.3755   -9.1246   37.4438 C   0  0  0  0  0  0  0  0  0  0  0  0
   31.9542   -8.8094   36.9624 C   0  0  0  0  0  0  0  0  0  0  0  0
   32.1797   -7.9837   35.6784 C   0  0  0  0  0  0  0  0  0  0  0  0
   35.0292  -16.3310   36.6745 N   0  0  0  0  0  0  0  0  0  0  0  0
   35.7541  -16.7125   37.3601 H   0  0  0  0  0  0  0  0  0  0  0  0
   34.3763  -17.1986   35.7824 C   0  0  0  0  0  0  0  0  0  0  0  0
   33.3438  -16.8749   34.9298 C   0  0  0  0  0  0  0  0  0  0  0  0
   32.7707  -17.8331   34.0824 C   0  0  0  0  0  0  0  0  0  0  0  0
   33.2111  -19.1282   34.0659 C   0  0  0  0  0  0  0  0  0  0  0  0
   34.2396  -19.4579   34.9130 C   0  0  0  0  0  0  0  0  0  0  0  0
   34.8175  -18.5348   35.7529 C   0  0  0  0  0  0  0  0  0  0  0  0
   36.0974  -19.0438   36.7932 S   0  0  0  0  0  0  0  0  0  0  0  0
   35.8403  -18.5186   38.1803 O   0  0  0  0  0  0  0  0  0  0  0  0
   36.2511  -20.5270   36.8764 O   0  0  0  0  0  0  0  0  0  0  0  0
   37.6651  -18.3251   36.3058 C   0  0  0  0  0  0  0  0  0  0  0  0
   37.7520  -18.2952   34.7703 C   0  0  0  0  0  0  0  0  0  0  0  0
   38.7538  -19.2610   36.7594 C   0  0  0  0  0  0  0  0  0  0  0  0
 19 20  1  0  0  0
 20 21  1  0  0  0
 20 18  1  0  0  0
 18 10  1  0  0  0
 10 11  2  0  0  0
 11 12  1  0  0  0
 12 13  2  0  0  0
 13 14  1  0  0  0
 14 15  2  0  0  0
 15  8  1  0  0  0
  8  1  1  0  0  0
  1  2  2  0  0  0
  2  3  1  0  0  0
  3  4  2  0  0  0
  4  5  1  0  0  0
  4  6  1  0  0  0
  6 22  1  0  0  0
 22 24  1  0  0  0
 24 25  2  0  0  0
 25 26  1  0  0  0
 26 27  2  0  0  0
 27 28  1  0  0  0
 28 29  2  0  0  0
 29 30  1  0  0  0
 30 31  2  0  0  0
 30 32  2  0  0  0
 30 33  1  0  0  0
 33 34  1  0  0  0
 33 35  1  0  0  0
  6  7  2  0  0  0
 12 16  1  0  0  0
 16 17  3  0  0  0
 15 10  1  0  0  0
  7  1  1  0  0  0
 29 24  1  0  0  0
  8  9  1  0  0  0
 22 23  1  0  0  0
M  END
> <minimizedAffinity>
-6.96069

> <CNNscore>
0.4370147586

> <CNNaffinity>
7.1567382812

> <CNN_VS>
3.1276001930

> <CNNaffinity_variance>
0.0749034807

$$$$
[H]c1nc(N([H])c2c([H])c([H])c(C#N)c([H])c2OC([H])(C([H])([H])[H])C([H])([H])[H])nc(N([H])c2c([H])c([H])c([H])c([H])c2S(=O)(=O)C([H])(C([H])([H])[H])C([H])([H])[H])c1Cl


 35 37  0  0  0  0  0  0  0  0999 V2000
   31.6863  -19.0179   35.6144 C   0  0  0  0  0  0  0  0  0  0  0  0
   30.4422  -18.8197   35.1710 N   0  0  0  0  0  0  0  0  0  0  0  0
   29.4823  -19.7460   35.1890 C   0  0  0  0  0  0  0  0  0  0  0  0
   29.7409  -21.0025   35.6868 C   0  0  0  0  0  0  0  0  0  0  0  0
   28.4808  -22.2223   35.7117 Cl  0  0  0  0  0  0  0  0  0  0  0  0
   31.0398  -21.2539   36.1647 C   0  0  0  0  0  0  0  0  0  0  0  0
   31.9063  -20.2668   36.0980 N   0  0  0  0  0  0  0  0  0  0  0  0
   32.7083  -18.0611   35.6038 N   0  0  0  0  0  0  0  0  0  0  0  0
   32.4303  -17.1181   36.0249 H   0  0  0  0  0  0  0  0  0  0  0  0
   34.9582  -17.1843   35.4781 C   0  0  0  0  0  0  0  0  0  0  0  0
   36.2628  -17.2375   35.0429 C   0  0  0  0  0  0  0  0  0  0  0  0
   36.6945  -18.2761   34.2410 C   0  0  0  0  0  0  0  0  0  0  0  0
   35.8002  -19.2490   33.8890 C   0  0  0  0  0  0  0  0  0  0  0  0
   34.4659  -19.2064   34.3263 C   0  0  0  0  0  0  0  0  0  0  0  0
   34.0068  -18.1892   35.1229 C   0  0  0  0  0  0  0  0  0  0  0  0
   38.0632  -18.2816   33.8170 C   0  0  0  0  0  0  0  0  0  0  0  0
   39.1811  -18.2865   33.4921 N   0  0  0  0  0  0  0  0  0  0  0  0
   34.4714  -16.1794   36.2751 O   0  0  0  0  0  0  0  0  0  0  0  0
   33.7751  -13.8665   36.3284 C   0  0  0  0  0  0  0  0  0  0  0  0
   34.9226  -14.8816   36.2652 C   0  0  0  0  0  0  0  0  0  0  0  0
   35.7318  -14.5963   37.5477 C   0  0  0  0  0  0  0  0  0  0  0  0
   31.2889  -22.5461   36.6694 N   0  0  0  0  0  0  0  0  0  0  0  0
   31.5995  -23.2452   35.9238 H   0  0  0  0  0  0  0  0  0  0  0  0
   31.1637  -22.9520   38.0090 C   0  0  0  0  0  0  0  0  0  0  0  0
   29.9902  -23.1045   38.7144 C   0  0  0  0  0  0  0  0  0  0  0  0
   29.9935  -23.5173   40.0540 C   0  0  0  0  0  0  0  0  0  0  0  0
   31.1597  -23.7857   40.7168 C   0  0  0  0  0  0  0  0  0  0  0  0
   32.3328  -23.6358   40.0201 C   0  0  0  0  0  0  0  0  0  0  0  0
   32.3542  -23.2323   38.7054 C   0  0  0  0  0  0  0  0  0  0  0  0
   33.8781  -23.0586   37.9137 S   0  0  0  0  0  0  0  0  0  0  0  0
   33.8364  -23.7964   36.6023 O   0  0  0  0  0  0  0  0  0  0  0  0
   34.2553  -21.6398   37.6396 O   0  0  0  0  0  0  0  0  0  0  0  0
   35.1951  -23.8386   38.8458 C   0  0  0  0  0  0  0  0  0  0  0  0
   36.5240  -23.1294   38.5340 C   0  0  0  0  0  0  0  0  0  0  0  0
   35.3487  -25.2432   38.3255 C   0  0  0  0  0  0  0  0  0  0  0  0
 19 20  1  0  0  0
 20 21  1  0  0  0
 20 18  1  0  0  0
 18 10  1  0  0  0
 10 11  2  0  0  0
 11 12  1  0  0  0
 12 13  2  0  0  0
 13 14  1  0  0  0
 14 15  2  0  0  0
 15  8  1  0  0  0
  8  1  1  0  0  0
  1  2  2  0  0  0
  2  3  1  0  0  0
  3  4  2  0  0  0
  4  5  1  0  0  0
  4  6  1  0  0  0
  6 22  1  0  0  0
 22 24  1  0  0  0
 24 25  2  0  0  0
 25 26  1  0  0  0
 26 27  2  0  0  0
 27 28  1  0  0  0
 28 29  2  0  0  0
 29 30  1  0  0  0
 30 31  2  0  0  0
 30 32  2  0  0  0
 30 33  1  0  0  0
 33 34  1  0  0  0
 33 35  1  0  0  0
  6  7  2  0  0  0
 12 16  1  0  0  0
 16 17  3  0  0  0
 15 10  1  0  0  0
  7  1  1  0  0  0
 29 24  1  0  0  0
  8  9  1  0  0  0
 22 23  1  0  0  0
M  END
> <minimizedAffinity>
-5.71857

> <CNNscore>
0.4178568721

> <CNNaffinity>
6.0808768272

> <CNN_VS>
2.5409362316

> <CNNaffinity_variance>
0.2795871794

$$$$
[H]c1nc(N([H])c2c([H])c([H])c(C#N)c([H])c2OC([H])(C([H])([H])[H])C([H])([H])[H])nc(N([H])c2c([H])c([H])c([H])c([H])c2S(=O)(=O)C([H])(C([H])([H])[H])C([H])([H])[H])c1Cl


 35 37  0  0  0  0  0  0  0  0999 V2000
   33.0679  -17.7439   35.4620 C   0  0  0  0  0  0  0  0  0  0  0  0
   32.0435  -18.2511   34.7712 N   0  0  0  0  0  0  0  0  0  0  0  0
   31.8349  -19.5559   34.5872 C   0  0  0  0  0  0  0  0  0  0  0  0
   32.7029  -20.4790   35.1238 C   0  0  0  0  0  0  0  0  0  0  0  0
   32.4309  -22.1950   34.8834 Cl  0  0  0  0  0  0  0  0  0  0  0  0
   33.7962  -19.9871   35.8594 C   0  0  0  0  0  0  0  0  0  0  0  0
   33.9032  -18.6816   35.9766 N   0  0  0  0  0  0  0  0  0  0  0  0
   33.3061  -16.3795   35.6662 N   0  0  0  0  0  0  0  0  0  0  0  0
   32.4660  -15.7517   35.4562 H   0  0  0  0  0  0  0  0  0  0  0  0
   34.3709  -14.4678   36.6948 C   0  0  0  0  0  0  0  0  0  0  0  0
   35.4795  -13.7891   37.1472 C   0  0  0  0  0  0  0  0  0  0  0  0
   36.7386  -14.3460   37.0357 C   0  0  0  0  0  0  0  0  0  0  0  0
   36.8609  -15.5838   36.4674 C   0  0  0  0  0  0  0  0  0  0  0  0
   35.7375  -16.2870   36.0015 C   0  0  0  0  0  0  0  0  0  0  0  0
   34.4746  -15.7616   36.0978 C   0  0  0  0  0  0  0  0  0  0  0  0
   37.8575  -13.5954   37.5234 C   0  0  0  0  0  0  0  0  0  0  0  0
   38.7718  -13.0014   37.9314 N   0  0  0  0  0  0  0  0  0  0  0  0
   33.0964  -13.9671   36.7779 O   0  0  0  0  0  0  0  0  0  0  0  0
   31.4876  -12.1647   36.8030 C   0  0  0  0  0  0  0  0  0  0  0  0
   32.7546  -12.7899   37.3988 C   0  0  0  0  0  0  0  0  0  0  0  0
   32.3694  -13.0627   38.8679 C   0  0  0  0  0  0  0  0  0  0  0  0
   34.6768  -20.9454   36.4007 N   0  0  0  0  0  0  0  0  0  0  0  0
   34.2456  -21.9178   36.4975 H   0  0  0  0  0  0  0  0  0  0  0  0
   36.0059  -20.7201   36.7977 C   0  0  0  0  0  0  0  0  0  0  0  0
   37.0267  -20.2337   36.0108 C   0  0  0  0  0  0  0  0  0  0  0  0
   38.3186  -20.0513   36.5234 C   0  0  0  0  0  0  0  0  0  0  0  0
   38.6203  -20.3481   37.8243 C   0  0  0  0  0  0  0  0  0  0  0  0
   37.6081  -20.8333   38.6142 C   0  0  0  0  0  0  0  0  0  0  0  0
   36.3331  -21.0201   38.1333 C   0  0  0  0  0  0  0  0  0  0  0  0
   35.1270  -21.6476   39.1969 S   0  0  0  0  0  0  0  0  0  0  0  0
   34.0695  -20.5983   39.4126 O   0  0  0  0  0  0  0  0  0  0  0  0
   34.4613  -22.8841   38.6888 O   0  0  0  0  0  0  0  0  0  0  0  0
   35.7958  -21.9772   40.8266 C   0  0  0  0  0  0  0  0  0  0  0  0
   35.1214  -23.2328   41.4054 C   0  0  0  0  0  0  0  0  0  0  0  0
   35.3843  -20.8406   41.7243 C   0  0  0  0  0  0  0  0  0  0  0  0
 19 20  1  0  0  0
 20 21  1  0  0  0
 20 18  1  0  0  0
 18 10  1  0  0  0
 10 11  2  0  0  0
 11 12  1  0  0  0
 12 13  2  0  0  0
 13 14  1  0  0  0
 14 15  2  0  0  0
 15  8  1  0  0  0
  8  1  1  0  0  0
  1  2  2  0  0  0
  2  3  1  0  0  0
  3  4  2  0  0  0
  4  5  1  0  0  0
  4  6  1  0  0  0
  6 22  1  0  0  0
 22 24  1  0  0  0
 24 25  2  0  0  0
 25 26  1  0  0  0
 26 27  2  0  0  0
 27 28  1  0  0  0
 28 29  2  0  0  0
 29 30  1  0  0  0
 30 31  2  0  0  0
 30 32  2  0  0  0
 30 33  1  0  0  0
 33 34  1  0  0  0
 33 35  1  0  0  0
  6  7  2  0  0  0
 12 16  1  0  0  0
 16 17  3  0  0  0
 15 10  1  0  0  0
  7  1  1  0  0  0
 29 24  1  0  0  0
  8  9  1  0  0  0
 22 23  1  0  0  0
M  END
> <minimizedAffinity>
-6.51748

> <CNNscore>
0.4146494865

> <CNNaffinity>
6.4465270042

> <CNN_VS>
2.6730492115

> <CNNaffinity_variance>
0.0571079664

$$$$
[H]c1nc(N([H])c2c([H])c([H])c(C#N)c([H])c2OC([H])(C([H])([H])[H])C([H])([H])[H])nc(N([H])c2c([H])c([H])c([H])c([H])c2S(=O)(=O)C([H])(C([H])([H])[H])C([H])([H])[H])c1Cl


 35 37  0  0  0  0  0  0  0  0999 V2000
   33.0115  -17.6948   35.3061 C   0  0  0  0  0  0  0  0  0  0  0  0
   33.3514  -18.1420   34.0945 N   0  0  0  0  0  0  0  0  0  0  0  0
   33.1529  -19.3921   33.6728 C   0  0  0  0  0  0  0  0  0  0  0  0
   32.5634  -20.3181   34.5025 C   0  0  0  0  0  0  0  0  0  0  0  0
   32.3012  -21.9622   33.9506 Cl  0  0  0  0  0  0  0  0  0  0  0  0
   32.1895  -19.8884   35.7886 C   0  0  0  0  0  0  0  0  0  0  0  0
   32.4332  -18.6335   36.0975 N   0  0  0  0  0  0  0  0  0  0  0  0
   33.2116  -16.3888   35.7691 N   0  0  0  0  0  0  0  0  0  0  0  0
   32.3226  -15.7951   35.8037 H   0  0  0  0  0  0  0  0  0  0  0  0
   34.3348  -14.4622   36.7035 C   0  0  0  0  0  0  0  0  0  0  0  0
   35.4631  -13.7987   37.1291 C   0  0  0  0  0  0  0  0  0  0  0  0
   36.7027  -14.4039   37.0594 C   0  0  0  0  0  0  0  0  0  0  0  0
   36.7859  -15.6740   36.5595 C   0  0  0  0  0  0  0  0  0  0  0  0
   35.6422  -16.3622   36.1217 C   0  0  0  0  0  0  0  0  0  0  0  0
   34.3977  -15.7892   36.1778 C   0  0  0  0  0  0  0  0  0  0  0  0
   37.8436  -13.6671   37.5165 C   0  0  0  0  0  0  0  0  0  0  0  0
   38.7610  -13.0654   37.9056 N   0  0  0  0  0  0  0  0  0  0  0  0
   33.0780  -13.9140   36.7477 O   0  0  0  0  0  0  0  0  0  0  0  0
   31.4915  -12.0937   36.8306 C   0  0  0  0  0  0  0  0  0  0  0  0
   32.7510  -12.7528   37.4055 C   0  0  0  0  0  0  0  0  0  0  0  0
   32.3631  -13.0669   38.8657 C   0  0  0  0  0  0  0  0  0  0  0  0
   31.5888  -20.8493   36.6267 N   0  0  0  0  0  0  0  0  0  0  0  0
   30.5213  -20.8086   36.6296 H   0  0  0  0  0  0  0  0  0  0  0  0
   32.2608  -21.8013   37.4122 C   0  0  0  0  0  0  0  0  0  0  0  0
   33.6249  -21.9452   37.5396 C   0  0  0  0  0  0  0  0  0  0  0  0
   34.1796  -22.9388   38.3581 C   0  0  0  0  0  0  0  0  0  0  0  0
   33.3917  -23.8064   39.0639 C   0  0  0  0  0  0  0  0  0  0  0  0
   32.0316  -23.6688   38.9416 C   0  0  0  0  0  0  0  0  0  0  0  0
   31.4648  -22.7015   38.1450 C   0  0  0  0  0  0  0  0  0  0  0  0
   29.7440  -22.6120   38.0425 S   0  0  0  0  0  0  0  0  0  0  0  0
   29.1545  -22.9482   39.3862 O   0  0  0  0  0  0  0  0  0  0  0  0
   29.2349  -21.2694   37.6318 O   0  0  0  0  0  0  0  0  0  0  0  0
   29.0876  -23.8480   36.9230 C   0  0  0  0  0  0  0  0  0  0  0  0
   29.8385  -25.1734   37.1367 C   0  0  0  0  0  0  0  0  0  0  0  0
   29.4186  -23.4113   35.5206 C   0  0  0  0  0  0  0  0  0  0  0  0
 19 20  1  0  0  0
 20 21  1  0  0  0
 20 18  1  0  0  0
 18 10  1  0  0  0
 10 11  2  0  0  0
 11 12  1  0  0  0
 12 13  2  0  0  0
 13 14  1  0  0  0
 14 15  2  0  0  0
 15  8  1  0  0  0
  8  1  1  0  0  0
  1  2  2  0  0  0
  2  3  1  0  0  0
  3  4  2  0  0  0
  4  5  1  0  0  0
  4  6  1  0  0  0
  6 22  1  0  0  0
 22 24  1  0  0  0
 24 25  2  0  0  0
 25 26  1  0  0  0
 26 27  2  0  0  0
 27 28  1  0  0  0
 28 29  2  0  0  0
 29 30  1  0  0  0
 30 31  2  0  0  0
 30 32  2  0  0  0
 30 33  1  0  0  0
 33 34  1  0  0  0
 33 35  1  0  0  0
  6  7  2  0  0  0
 12 16  1  0  0  0
 16 17  3  0  0  0
 15 10  1  0  0  0
  7  1  1  0  0  0
 29 24  1  0  0  0
  8  9  1  0  0  0
 22 23  1  0  0  0
M  END
> <minimizedAffinity>
-6.53111

> <CNNscore>
0.3863863051

> <CNNaffinity>
6.2579135895

> <CNN_VS>
2.4179720879

> <CNNaffinity_variance>
0.0692004412

$$$$
[H]c1nc(N([H])c2c([H])c([H])c(C#N)c([H])c2OC([H])(C([H])([H])[H])C([H])([H])[H])nc(N([H])c2c([H])c([H])c([H])c([H])c2S(=O)(=O)C([H])(C([H])([H])[H])C([H])([H])[H])c1Cl


 35 37  0  0  0  0  0  0  0  0999 V2000
   33.0574  -17.7045   35.3808 C   0  0  0  0  0  0  0  0  0  0  0  0
   32.1044  -18.1821   34.5761 N   0  0  0  0  0  0  0  0  0  0  0  0
   31.9028  -19.4793   34.3389 C   0  0  0  0  0  0  0  0  0  0  0  0
   32.7017  -20.4259   34.9382 C   0  0  0  0  0  0  0  0  0  0  0  0
   32.4388  -22.1321   34.6281 Cl  0  0  0  0  0  0  0  0  0  0  0  0
   33.7186  -19.9655   35.7941 C   0  0  0  0  0  0  0  0  0  0  0  0
   33.8261  -18.6647   35.9545 N   0  0  0  0  0  0  0  0  0  0  0  0
   33.2871  -16.3485   35.6426 N   0  0  0  0  0  0  0  0  0  0  0  0
   32.4364  -15.7207   35.4808 H   0  0  0  0  0  0  0  0  0  0  0  0
   34.3673  -14.4306   36.6432 C   0  0  0  0  0  0  0  0  0  0  0  0
   35.4801  -13.7586   37.0954 C   0  0  0  0  0  0  0  0  0  0  0  0
   36.7319  -14.3365   37.0129 C   0  0  0  0  0  0  0  0  0  0  0  0
   36.8428  -15.5882   36.4735 C   0  0  0  0  0  0  0  0  0  0  0  0
   35.7151  -16.2848   36.0082 C   0  0  0  0  0  0  0  0  0  0  0  0
   34.4592  -15.7387   36.0761 C   0  0  0  0  0  0  0  0  0  0  0  0
   37.8557  -13.5921   37.4989 C   0  0  0  0  0  0  0  0  0  0  0  0
   38.7564  -12.9714   37.8973 N   0  0  0  0  0  0  0  0  0  0  0  0
   33.0996  -13.9092   36.6983 O   0  0  0  0  0  0  0  0  0  0  0  0
   31.4792  -12.1210   36.8170 C   0  0  0  0  0  0  0  0  0  0  0  0
   32.7486  -12.7700   37.3816 C   0  0  0  0  0  0  0  0  0  0  0  0
   32.3611  -13.1252   38.8325 C   0  0  0  0  0  0  0  0  0  0  0  0
   34.5293  -20.9475   36.3984 N   0  0  0  0  0  0  0  0  0  0  0  0
   34.9313  -21.6563   35.7078 H   0  0  0  0  0  0  0  0  0  0  0  0
   34.8266  -21.0500   37.7681 C   0  0  0  0  0  0  0  0  0  0  0  0
   33.9229  -21.2200   38.7940 C   0  0  0  0  0  0  0  0  0  0  0  0
   34.3432  -21.3088   40.1283 C   0  0  0  0  0  0  0  0  0  0  0  0
   35.6660  -21.2304   40.4682 C   0  0  0  0  0  0  0  0  0  0  0  0
   36.5720  -21.0608   39.4511 C   0  0  0  0  0  0  0  0  0  0  0  0
   36.1831  -20.9714   38.1349 C   0  0  0  0  0  0  0  0  0  0  0  0
   37.3924  -20.7454   36.9241 S   0  0  0  0  0  0  0  0  0  0  0  0
   37.5670  -22.0302   36.1595 O   0  0  0  0  0  0  0  0  0  0  0  0
   37.0715  -19.6611   35.9485 O   0  0  0  0  0  0  0  0  0  0  0  0
   38.9963  -20.4143   37.6517 C   0  0  0  0  0  0  0  0  0  0  0  0
   39.7078  -19.3239   36.8326 C   0  0  0  0  0  0  0  0  0  0  0  0
   39.8319  -21.6567   37.4926 C   0  0  0  0  0  0  0  0  0  0  0  0
 19 20  1  0  0  0
 20 21  1  0  0  0
 20 18  1  0  0  0
 18 10  1  0  0  0
 10 11  2  0  0  0
 11 12  1  0  0  0
 12 13  2  0  0  0
 13 14  1  0  0  0
 14 15  2  0  0  0
 15  8  1  0  0  0
  8  1  1  0  0  0
  1  2  2  0  0  0
  2  3  1  0  0  0
  3  4  2  0  0  0
  4  5  1  0  0  0
  4  6  1  0  0  0
  6 22  1  0  0  0
 22 24  1  0  0  0
 24 25  2  0  0  0
 25 26  1  0  0  0
 26 27  2  0  0  0
 27 28  1  0  0  0
 28 29  2  0  0  0
 29 30  1  0  0  0
 30 31  2  0  0  0
 30 32  2  0  0  0
 30 33  1  0  0  0
 33 34  1  0  0  0
 33 35  1  0  0  0
  6  7  2  0  0  0
 12 16  1  0  0  0
 16 17  3  0  0  0
 15 10  1  0  0  0
  7  1  1  0  0  0
 29 24  1  0  0  0
  8  9  1  0  0  0
 22 23  1  0  0  0
M  END
> <minimizedAffinity>
-6.54995

> <CNNscore>
0.3711699843

> <CNNaffinity>
6.3552718163

> <CNN_VS>
2.3588862419

> <CNNaffinity_variance>
0.0959743261

$$$$
[H]c1nc(N([H])c2c([H])c([H])c(C#N)c([H])c2OC([H])(C([H])([H])[H])C([H])([H])[H])nc(N([H])c2c([H])c([H])c([H])c([H])c2S(=O)(=O)C([H])(C([H])([H])[H])C([H])([H])[H])c1Cl


 35 37  0  0  0  0  0  0  0  0999 V2000
   33.6066  -14.0063   36.5822 C   0  0  0  0  0  0  0  0  0  0  0  0
   34.4918  -13.0401   36.3247 N   0  0  0  0  0  0  0  0  0  0  0  0
   34.3672  -11.7779   36.7386 C   0  0  0  0  0  0  0  0  0  0  0  0
   33.2738  -11.3971   37.4820 C   0  0  0  0  0  0  0  0  0  0  0  0
   33.1075   -9.7384   38.0275 Cl  0  0  0  0  0  0  0  0  0  0  0  0
   32.3163  -12.3846   37.7763 C   0  0  0  0  0  0  0  0  0  0  0  0
   32.5417  -13.5961   37.3169 N   0  0  0  0  0  0  0  0  0  0  0  0
   33.7171  -15.3356   36.1571 N   0  0  0  0  0  0  0  0  0  0  0  0
   32.8536  -15.7053   35.6455 H   0  0  0  0  0  0  0  0  0  0  0  0
   34.6605  -17.5328   35.7983 C   0  0  0  0  0  0  0  0  0  0  0  0
   35.6741  -18.4564   35.9165 C   0  0  0  0  0  0  0  0  0  0  0  0
   36.8571  -18.1249   36.5477 C   0  0  0  0  0  0  0  0  0  0  0  0
   37.0005  -16.8620   37.0522 C   0  0  0  0  0  0  0  0  0  0  0  0
   35.9738  -15.9099   36.9383 C   0  0  0  0  0  0  0  0  0  0  0  0
   34.7880  -16.2079   36.3176 C   0  0  0  0  0  0  0  0  0  0  0  0
   37.8786  -19.1253   36.6423 C   0  0  0  0  0  0  0  0  0  0  0  0
   38.6973  -19.9479   36.7332 N   0  0  0  0  0  0  0  0  0  0  0  0
   33.4645  -17.8028   35.1830 O   0  0  0  0  0  0  0  0  0  0  0  0
   31.3054  -18.8870   35.1650 C   0  0  0  0  0  0  0  0  0  0  0  0
   32.8324  -19.0228   35.1974 C   0  0  0  0  0  0  0  0  0  0  0  0
   33.1563  -19.7983   33.9032 C   0  0  0  0  0  0  0  0  0  0  0  0
   31.2016  -11.9780   38.5369 N   0  0  0  0  0  0  0  0  0  0  0  0
   31.0403  -10.9221   38.5309 H   0  0  0  0  0  0  0  0  0  0  0  0
   30.3388  -12.8195   39.2598 C   0  0  0  0  0  0  0  0  0  0  0  0
   30.6872  -13.9703   39.9321 C   0  0  0  0  0  0  0  0  0  0  0  0
   29.7313  -14.7297   40.6209 C   0  0  0  0  0  0  0  0  0  0  0  0
   28.4142  -14.3614   40.6548 C   0  0  0  0  0  0  0  0  0  0  0  0
   28.0599  -13.2158   39.9870 C   0  0  0  0  0  0  0  0  0  0  0  0
   28.9802  -12.4546   39.3048 C   0  0  0  0  0  0  0  0  0  0  0  0
   28.4403  -11.0361   38.4828 S   0  0  0  0  0  0  0  0  0  0  0  0
   29.2542  -10.8558   37.2294 O   0  0  0  0  0  0  0  0  0  0  0  0
   26.9970  -11.0748   38.1009 O   0  0  0  0  0  0  0  0  0  0  0  0
   28.7439   -9.5597   39.4522 C   0  0  0  0  0  0  0  0  0  0  0  0
   27.4189   -8.8040   39.6510 C   0  0  0  0  0  0  0  0  0  0  0  0
   29.6158   -8.6483   38.6299 C   0  0  0  0  0  0  0  0  0  0  0  0
 19 20  1  0  0  0
 20 21  1  0  0  0
 20 18  1  0  0  0
 18 10  1  0  0  0
 10 11  2  0  0  0
 11 12  1  0  0  0
 12 13  2  0  0  0
 13 14  1  0  0  0
 14 15  2  0  0  0
 15  8  1  0  0  0
  8  1  1  0  0  0
  1  2  2  0  0  0
  2  3  1  0  0  0
  3  4  2  0  0  0
  4  5  1  0  0  0
  4  6  1  0  0  0
  6 22  1  0  0  0
 22 24  1  0  0  0
 24 25  2  0  0  0
 25 26  1  0  0  0
 26 27  2  0  0  0
 27 28  1  0  0  0
 28 29  2  0  0  0
 29 30  1  0  0  0
 30 31  2  0  0  0
 30 32  2  0  0  0
 30 33  1  0  0  0
 33 34  1  0  0  0
 33 35  1  0  0  0
  6  7  2  0  0  0
 12 16  1  0  0  0
 16 17  3  0  0  0
 15 10  1  0  0  0
  7  1  1  0  0  0
 29 24  1  0  0  0
  8  9  1  0  0  0
 22 23  1  0  0  0
M  END
> <minimizedAffinity>
-7.39875

> <CNNscore>
0.3203378320

> <CNNaffinity>
6.8515181541

> <CNN_VS>
2.1948003769

> <CNNaffinity_variance>
0.0573306456

$$$$
[H]c1nc(N([H])c2c([H])c([H])c(C#N)c([H])c2OC([H])(C([H])([H])[H])C([H])([H])[H])nc(N([H])c2c([H])c([H])c([H])c([H])c2S(=O)(=O)C([H])(C([H])([H])[H])C([H])([H])[H])c1Cl


 35 37  0  0  0  0  0  0  0  0999 V2000
   32.8871  -18.9828   34.8911 C   0  0  0  0  0  0  0  0  0  0  0  0
   31.6752  -18.7959   34.3620 N   0  0  0  0  0  0  0  0  0  0  0  0
   30.5877  -19.4835   34.7149 C   0  0  0  0  0  0  0  0  0  0  0  0
   30.6681  -20.4589   35.6821 C   0  0  0  0  0  0  0  0  0  0  0  0
   29.2400  -21.3643   36.1481 Cl  0  0  0  0  0  0  0  0  0  0  0  0
   31.9271  -20.6882   36.2660 C   0  0  0  0  0  0  0  0  0  0  0  0
   32.9300  -19.9513   35.8409 N   0  0  0  0  0  0  0  0  0  0  0  0
   34.0407  -18.2740   34.5349 N   0  0  0  0  0  0  0  0  0  0  0  0
   34.4497  -18.5509   33.5863 H   0  0  0  0  0  0  0  0  0  0  0  0
   36.1023  -17.4291   35.4742 C   0  0  0  0  0  0  0  0  0  0  0  0
   36.8270  -16.4904   36.1729 C   0  0  0  0  0  0  0  0  0  0  0  0
   36.2112  -15.3642   36.6831 C   0  0  0  0  0  0  0  0  0  0  0  0
   34.8687  -15.2012   36.4802 C   0  0  0  0  0  0  0  0  0  0  0  0
   34.1175  -16.1517   35.7690 C   0  0  0  0  0  0  0  0  0  0  0  0
   34.6992  -17.2798   35.2501 C   0  0  0  0  0  0  0  0  0  0  0  0
   37.0137  -14.4196   37.4022 C   0  0  0  0  0  0  0  0  0  0  0  0
   37.6624  -13.6385   37.9716 N   0  0  0  0  0  0  0  0  0  0  0  0
   36.6573  -18.5663   34.9444 O   0  0  0  0  0  0  0  0  0  0  0  0
   38.6876  -19.2913   36.0351 C   0  0  0  0  0  0  0  0  0  0  0  0
   38.0039  -18.7721   34.7646 C   0  0  0  0  0  0  0  0  0  0  0  0
   38.2309  -19.9040   33.7407 C   0  0  0  0  0  0  0  0  0  0  0  0
   31.9929  -21.6918   37.2535 N   0  0  0  0  0  0  0  0  0  0  0  0
   31.6286  -21.3791   38.2077 H   0  0  0  0  0  0  0  0  0  0  0  0
   32.4771  -22.9992   37.0768 C   0  0  0  0  0  0  0  0  0  0  0  0
   31.9331  -23.9741   36.2698 C   0  0  0  0  0  0  0  0  0  0  0  0
   32.5099  -25.2483   36.1762 C   0  0  0  0  0  0  0  0  0  0  0  0
   33.6353  -25.5775   36.8809 C   0  0  0  0  0  0  0  0  0  0  0  0
   34.1826  -24.6109   37.6872 C   0  0  0  0  0  0  0  0  0  0  0  0
   33.6345  -23.3541   37.7947 C   0  0  0  0  0  0  0  0  0  0  0  0
   34.3846  -22.2069   38.8439 S   0  0  0  0  0  0  0  0  0  0  0  0
   33.3285  -21.2944   39.4080 O   0  0  0  0  0  0  0  0  0  0  0  0
   35.1231  -22.8275   39.9840 O   0  0  0  0  0  0  0  0  0  0  0  0
   35.5014  -21.1294   37.9478 C   0  0  0  0  0  0  0  0  0  0  0  0
   36.9527  -21.5286   38.2651 C   0  0  0  0  0  0  0  0  0  0  0  0
   35.3296  -19.7386   38.4985 C   0  0  0  0  0  0  0  0  0  0  0  0
 19 20  1  0  0  0
 20 21  1  0  0  0
 20 18  1  0  0  0
 18 10  1  0  0  0
 10 11  2  0  0  0
 11 12  1  0  0  0
 12 13  2  0  0  0
 13 14  1  0  0  0
 14 15  2  0  0  0
 15  8  1  0  0  0
  8  1  1  0  0  0
  1  2  2  0  0  0
  2  3  1  0  0  0
  3  4  2  0  0  0
  4  5  1  0  0  0
  4  6  1  0  0  0
  6 22  1  0  0  0
 22 24  1  0  0  0
 24 25  2  0  0  0
 25 26  1  0  0  0
 26 27  2  0  0  0
 27 28  1  0  0  0
 28 29  2  0  0  0
 29 30  1  0  0  0
 30 31  2  0  0  0
 30 32  2  0  0  0
 30 33  1  0  0  0
 33 34  1  0  0  0
 33 35  1  0  0  0
  6  7  2  0  0  0
 12 16  1  0  0  0
 16 17  3  0  0  0
 15 10  1  0  0  0
  7  1  1  0  0  0
 29 24  1  0  0  0
  8  9  1  0  0  0
 22 23  1  0  0  0
M  END
> <minimizedAffinity>
-6.01424

> <CNNscore>
0.3201460838

> <CNNaffinity>
6.2480916977

> <CNN_VS>
2.0003020763

> <CNNaffinity_variance>
0.5632686615

$$$$
[H]c1nc(N([H])c2c([H])c([H])c(C#N)c([H])c2OC([H])(C([H])([H])[H])C([H])([H])[H])nc(N([H])c2c([H])c([H])c([H])c([H])c2S(=O)(=O)C([H])(C([H])([H])[H])C([H])([H])[H])c1Cl


 35 37  0  0  0  0  0  0  0  0999 V2000
   33.0050  -17.6777   35.2861 C   0  0  0  0  0  0  0  0  0  0  0  0
   33.2096  -18.1413   34.0504 N   0  0  0  0  0  0  0  0  0  0  0  0
   33.0051  -19.4065   33.6799 C   0  0  0  0  0  0  0  0  0  0  0  0
   32.5544  -20.3320   34.5931 C   0  0  0  0  0  0  0  0  0  0  0  0
   32.2846  -21.9960   34.1086 Cl  0  0  0  0  0  0  0  0  0  0  0  0
   32.3257  -19.8852   35.9071 C   0  0  0  0  0  0  0  0  0  0  0  0
   32.5611  -18.6163   36.1601 N   0  0  0  0  0  0  0  0  0  0  0  0
   33.2141  -16.3556   35.6963 N   0  0  0  0  0  0  0  0  0  0  0  0
   32.3372  -15.7439   35.6678 H   0  0  0  0  0  0  0  0  0  0  0  0
   34.3202  -14.4596   36.7104 C   0  0  0  0  0  0  0  0  0  0  0  0
   35.4432  -13.8022   37.1588 C   0  0  0  0  0  0  0  0  0  0  0  0
   36.6896  -14.3882   37.0540 C   0  0  0  0  0  0  0  0  0  0  0  0
   36.7848  -15.6332   36.4963 C   0  0  0  0  0  0  0  0  0  0  0  0
   35.6466  -16.3149   36.0347 C   0  0  0  0  0  0  0  0  0  0  0  0
   34.3957  -15.7605   36.1245 C   0  0  0  0  0  0  0  0  0  0  0  0
   37.8245  -13.6588   37.5370 C   0  0  0  0  0  0  0  0  0  0  0  0
   38.7505  -13.0603   37.9104 N   0  0  0  0  0  0  0  0  0  0  0  0
   33.0572  -13.9297   36.7872 O   0  0  0  0  0  0  0  0  0  0  0  0
   31.4791  -12.1010   36.8401 C   0  0  0  0  0  0  0  0  0  0  0  0
   32.7362  -12.7557   37.4251 C   0  0  0  0  0  0  0  0  0  0  0  0
   32.3485  -13.0426   38.8909 C   0  0  0  0  0  0  0  0  0  0  0  0
   31.8662  -20.8457   36.8307 N   0  0  0  0  0  0  0  0  0  0  0  0
   32.5466  -21.0287   37.6335 H   0  0  0  0  0  0  0  0  0  0  0  0
   30.6446  -21.5377   36.7694 C   0  0  0  0  0  0  0  0  0  0  0  0
   29.5045  -21.1342   36.1096 C   0  0  0  0  0  0  0  0  0  0  0  0
   28.3406  -21.9151   36.1214 C   0  0  0  0  0  0  0  0  0  0  0  0
   28.2869  -23.1089   36.7873 C   0  0  0  0  0  0  0  0  0  0  0  0
   29.4192  -23.5172   37.4471 C   0  0  0  0  0  0  0  0  0  0  0  0
   30.5726  -22.7680   37.4492 C   0  0  0  0  0  0  0  0  0  0  0  0
   31.9439  -23.3552   38.3176 S   0  0  0  0  0  0  0  0  0  0  0  0
   33.0875  -23.5460   37.3575 O   0  0  0  0  0  0  0  0  0  0  0  0
   32.3986  -22.4449   39.4108 O   0  0  0  0  0  0  0  0  0  0  0  0
   31.6378  -24.9809   39.0069 C   0  0  0  0  0  0  0  0  0  0  0  0
   31.1931  -24.8333   40.4721 C   0  0  0  0  0  0  0  0  0  0  0  0
   32.9541  -25.7106   39.0500 C   0  0  0  0  0  0  0  0  0  0  0  0
 19 20  1  0  0  0
 20 21  1  0  0  0
 20 18  1  0  0  0
 18 10  1  0  0  0
 10 11  2  0  0  0
 11 12  1  0  0  0
 12 13  2  0  0  0
 13 14  1  0  0  0
 14 15  2  0  0  0
 15  8  1  0  0  0
  8  1  1  0  0  0
  1  2  2  0  0  0
  2  3  1  0  0  0
  3  4  2  0  0  0
  4  5  1  0  0  0
  4  6  1  0  0  0
  6 22  1  0  0  0
 22 24  1  0  0  0
 24 25  2  0  0  0
 25 26  1  0  0  0
 26 27  2  0  0  0
 27 28  1  0  0  0
 28 29  2  0  0  0
 29 30  1  0  0  0
 30 31  2  0  0  0
 30 32  2  0  0  0
 30 33  1  0  0  0
 33 34  1  0  0  0
 33 35  1  0  0  0
  6  7  2  0  0  0
 12 16  1  0  0  0
 16 17  3  0  0  0
 15 10  1  0  0  0
  7  1  1  0  0  0
 29 24  1  0  0  0
  8  9  1  0  0  0
 22 23  1  0  0  0
M  END
> <minimizedAffinity>
-6.70473

> <CNNscore>
0.3188489676

> <CNNaffinity>
6.0743570328

> <CNN_VS>
1.9368025064

> <CNNaffinity_variance>
0.1887205094

$$$$
[H]c1nc(N([H])c2c([H])c([H])c(N3C([H])([H])C([H])([H])C([H])(N4C([H])([H])C([H])([H])C([H])([H])C([H])([H])C4([H])[H])C([H])([H])C3([H])[H])c([H])c2OC([H])([H])[H])nc(N([H])c2c([H])c([H])c([H])c([H])c2S(=O)(=O)C([H])(C([H])([H])[H])C([H])([H])[H])c1Cl


 43 47  0  0  0  0  0  0  0  0999 V2000
   33.8028  -12.8195   37.4089 N   0  0  0  0  0  0  0  0  0  0  0  0
   34.4791  -11.9959   37.5448 H   0  0  0  0  0  0  0  0  0  0  0  0
   32.4381  -12.5887   37.6931 C   0  0  0  0  0  0  0  0  0  0  0  0
   31.5795  -11.8904   36.9673 N   0  0  0  0  0  0  0  0  0  0  0  0
   30.3210  -11.7266   37.3686 C   0  0  0  0  0  0  0  0  0  0  0  0
   29.8283  -12.2554   38.5358 C   0  0  0  0  0  0  0  0  0  0  0  0
   28.1676  -12.0171   39.0363 Cl  0  0  0  0  0  0  0  0  0  0  0  0
   30.7274  -13.0078   39.3295 C   0  0  0  0  0  0  0  0  0  0  0  0
   31.9564  -13.1091   38.8371 N   0  0  0  0  0  0  0  0  0  0  0  0
   30.2563  -13.5620   40.5347 N   0  0  0  0  0  0  0  0  0  0  0  0
   30.7783  -13.2043   41.4013 H   0  0  0  0  0  0  0  0  0  0  0  0
   29.2447  -14.5185   40.6768 C   0  0  0  0  0  0  0  0  0  0  0  0
   28.9197  -15.4505   39.7029 C   0  0  0  0  0  0  0  0  0  0  0  0
   27.9754  -16.4674   39.8863 C   0  0  0  0  0  0  0  0  0  0  0  0
   27.3318  -16.5557   41.0876 C   0  0  0  0  0  0  0  0  0  0  0  0
   27.6349  -15.6451   42.0621 C   0  0  0  0  0  0  0  0  0  0  0  0
   28.5798  -14.6090   41.9085 C   0  0  0  0  0  0  0  0  0  0  0  0
   28.7856  -13.4731   43.1826 S   0  0  0  0  0  0  0  0  0  0  0  0
   30.2522  -13.6372   43.6722 O   0  0  0  0  0  0  0  0  0  0  0  0
   28.7959  -12.0191   42.7085 O   0  0  0  0  0  0  0  0  0  0  0  0
   27.8120  -13.7174   44.6111 C   0  0  0  0  0  0  0  0  0  0  0  0
   28.5663  -13.6972   45.8772 C   0  0  0  0  0  0  0  0  0  0  0  0
   26.6660  -12.6702   44.6396 C   0  0  0  0  0  0  0  0  0  0  0  0
   35.7906  -14.1526   37.0774 C   0  0  0  0  0  0  0  0  0  0  0  0
   36.4804  -15.2662   36.6779 C   0  0  0  0  0  0  0  0  0  0  0  0
   35.8124  -16.3236   36.1352 C   0  0  0  0  0  0  0  0  0  0  0  0
   34.4474  -16.2321   36.0074 C   0  0  0  0  0  0  0  0  0  0  0  0
   33.7635  -15.0922   36.4191 C   0  0  0  0  0  0  0  0  0  0  0  0
   34.4081  -14.0067   36.9695 C   0  0  0  0  0  0  0  0  0  0  0  0
   36.5353  -17.5057   35.6904 N   0  0  0  0  0  0  0  0  0  0  0  0
   36.7618  -17.5856   34.2897 C   0  0  0  0  0  0  0  0  0  0  0  0
   37.4154  -18.8756   33.9283 C   0  0  0  0  0  0  0  0  0  0  0  0
   38.5695  -19.1821   34.8852 C   0  0  0  0  0  0  0  0  0  0  0  0
   37.9480  -19.5102   36.1959 C   0  0  0  0  0  0  0  0  0  0  0  0
   36.9700  -18.4771   36.6365 C   0  0  0  0  0  0  0  0  0  0  0  0
   39.3710  -20.1964   34.3308 N   0  0  0  0  0  0  0  0  0  0  0  0
   38.8969  -21.5265   34.3139 C   0  0  0  0  0  0  0  0  0  0  0  0
   40.0368  -22.4037   34.8565 C   0  0  0  0  0  0  0  0  0  0  0  0
   41.3443  -21.7846   34.3945 C   0  0  0  0  0  0  0  0  0  0  0  0
   41.2001  -21.0370   33.0836 C   0  0  0  0  0  0  0  0  0  0  0  0
   40.2341  -19.8516   33.2450 C   0  0  0  0  0  0  0  0  0  0  0  0
   37.9197  -13.1363   37.7125 C   0  0  0  0  0  0  0  0  0  0  0  0
   36.4985  -13.0763   37.6330 O   0  0  0  0  0  0  0  0  0  0  0  0
 42 43  1  0  0  0
 43 24  1  0  0  0
 24 25  2  0  0  0
 25 26  1  0  0  0
 26 27  2  0  0  0
 27 28  1  0  0  0
 28 29  2  0  0  0
 29  1  1  0  0  0
  1  3  1  0  0  0
  3  4  2  0  0  0
  4  5  1  0  0  0
  5  6  2  0  0  0
  6  7  1  0  0  0
  6  8  1  0  0  0
  8 10  1  0  0  0
 10 12  1  0  0  0
 12 13  2  0  0  0
 13 14  1  0  0  0
 14 15  2  0  0  0
 15 16  1  0  0  0
 16 17  2  0  0  0
 17 18  1  0  0  0
 18 19  2  0  0  0
 18 20  2  0  0  0
 18 21  1  0  0  0
 21 22  1  0  0  0
 21 23  1  0  0  0
  8  9  2  0  0  0
 26 30  1  0  0  0
 30 31  1  0  0  0
 31 32  1  0  0  0
 32 33  1  0  0  0
 33 34  1  0  0  0
 34 35  1  0  0  0
 33 36  1  0  0  0
 36 37  1  0  0  0
 37 38  1  0  0  0
 38 39  1  0  0  0
 39 40  1  0  0  0
 40 41  1  0  0  0
 29 24  1  0  0  0
  9  3  1  0  0  0
 35 30  1  0  0  0
 41 36  1  0  0  0
 17 12  1  0  0  0
  1  2  1  0  0  0
 10 11  1  0  0  0
M  END
> <minimizedAffinity>
-7.69937

> <CNNscore>
0.4084774554

> <CNNaffinity>
6.9917974472

> <CNN_VS>
2.8559916019

> <CNNaffinity_variance>
0.0694620758

$$$$
[H]c1nc(N([H])c2c([H])c([H])c(N3C([H])([H])C([H])([H])C([H])(N4C([H])([H])C([H])([H])C([H])([H])C([H])([H])C4([H])[H])C([H])([H])C3([H])[H])c([H])c2OC([H])([H])[H])nc(N([H])c2c([H])c([H])c([H])c([H])c2S(=O)(=O)C([H])(C([H])([H])[H])C([H])([H])[H])c1Cl


 43 47  0  0  0  0  0  0  0  0999 V2000
   33.8244  -15.7618   36.0424 N   0  0  0  0  0  0  0  0  0  0  0  0
   32.8704  -16.2405   35.9201 H   0  0  0  0  0  0  0  0  0  0  0  0
   33.8209  -14.4052   36.4370 C   0  0  0  0  0  0  0  0  0  0  0  0
   34.6150  -13.4438   35.9935 N   0  0  0  0  0  0  0  0  0  0  0  0
   34.5235  -12.2062   36.4749 C   0  0  0  0  0  0  0  0  0  0  0  0
   33.6220  -11.8400   37.4433 C   0  0  0  0  0  0  0  0  0  0  0  0
   33.5310  -10.2031   38.0577 Cl  0  0  0  0  0  0  0  0  0  0  0  0
   32.7603  -12.8508   37.9334 C   0  0  0  0  0  0  0  0  0  0  0  0
   32.9355  -14.0477   37.3857 N   0  0  0  0  0  0  0  0  0  0  0  0
   31.8254  -12.5109   38.9295 N   0  0  0  0  0  0  0  0  0  0  0  0
   32.1948  -12.6520   39.9269 H   0  0  0  0  0  0  0  0  0  0  0  0
   30.5136  -12.0666   38.7291 C   0  0  0  0  0  0  0  0  0  0  0  0
   30.1045  -11.3389   37.6219 C   0  0  0  0  0  0  0  0  0  0  0  0
   28.7735  -10.9814   37.3769 C   0  0  0  0  0  0  0  0  0  0  0  0
   27.8159  -11.3653   38.2719 C   0  0  0  0  0  0  0  0  0  0  0  0
   28.1973  -12.0819   39.3727 C   0  0  0  0  0  0  0  0  0  0  0  0
   29.5289  -12.4568   39.6487 C   0  0  0  0  0  0  0  0  0  0  0  0
   29.8775  -13.2690   41.1233 S   0  0  0  0  0  0  0  0  0  0  0  0
   31.3727  -12.9755   41.4327 O   0  0  0  0  0  0  0  0  0  0  0  0
   29.1976  -12.6418   42.3413 O   0  0  0  0  0  0  0  0  0  0  0  0
   29.7635  -15.0110   41.1009 C   0  0  0  0  0  0  0  0  0  0  0  0
   29.5147  -15.6254   42.4174 C   0  0  0  0  0  0  0  0  0  0  0  0
   28.6766  -15.4439   40.0802 C   0  0  0  0  0  0  0  0  0  0  0  0
   36.0380  -16.5384   36.6217 C   0  0  0  0  0  0  0  0  0  0  0  0
   37.1666  -17.2955   36.4525 C   0  0  0  0  0  0  0  0  0  0  0  0
   37.2546  -18.1634   35.4047 C   0  0  0  0  0  0  0  0  0  0  0  0
   36.1885  -18.2490   34.5421 C   0  0  0  0  0  0  0  0  0  0  0  0
   35.0497  -17.4716   34.7302 C   0  0  0  0  0  0  0  0  0  0  0  0
   34.9297  -16.5846   35.7769 C   0  0  0  0  0  0  0  0  0  0  0  0
   38.4552  -18.9607   35.2035 N   0  0  0  0  0  0  0  0  0  0  0  0
   39.2685  -19.1322   36.3563 C   0  0  0  0  0  0  0  0  0  0  0  0
   40.5179  -19.8730   36.0216 C   0  0  0  0  0  0  0  0  0  0  0  0
   40.2059  -21.0887   35.1462 C   0  0  0  0  0  0  0  0  0  0  0  0
   39.8022  -20.5534   33.8186 C   0  0  0  0  0  0  0  0  0  0  0  0
   38.7407  -19.5141   33.9229 C   0  0  0  0  0  0  0  0  0  0  0  0
   41.3211  -21.9458   35.1333 N   0  0  0  0  0  0  0  0  0  0  0  0
   41.1602  -23.2910   34.7350 C   0  0  0  0  0  0  0  0  0  0  0  0
   41.8601  -24.1493   35.8012 C   0  0  0  0  0  0  0  0  0  0  0  0
   43.0702  -23.3708   36.2869 C   0  0  0  0  0  0  0  0  0  0  0  0
   43.6331  -22.4508   35.2216 C   0  0  0  0  0  0  0  0  0  0  0  0
   42.5995  -21.3794   34.8366 C   0  0  0  0  0  0  0  0  0  0  0  0
   37.0741  -14.7964   37.9861 C   0  0  0  0  0  0  0  0  0  0  0  0
   35.9695  -15.6518   37.7067 O   0  0  0  0  0  0  0  0  0  0  0  0
 42 43  1  0  0  0
 43 24  1  0  0  0
 24 25  2  0  0  0
 25 26  1  0  0  0
 26 27  2  0  0  0
 27 28  1  0  0  0
 28 29  2  0  0  0
 29  1  1  0  0  0
  1  3  1  0  0  0
  3  4  2  0  0  0
  4  5  1  0  0  0
  5  6  2  0  0  0
  6  7  1  0  0  0
  6  8  1  0  0  0
  8 10  1  0  0  0
 10 12  1  0  0  0
 12 13  2  0  0  0
 13 14  1  0  0  0
 14 15  2  0  0  0
 15 16  1  0  0  0
 16 17  2  0  0  0
 17 18  1  0  0  0
 18 19  2  0  0  0
 18 20  2  0  0  0
 18 21  1  0  0  0
 21 22  1  0  0  0
 21 23  1  0  0  0
  8  9  2  0  0  0
 26 30  1  0  0  0
 30 31  1  0  0  0
 31 32  1  0  0  0
 32 33  1  0  0  0
 33 34  1  0  0  0
 34 35  1  0  0  0
 33 36  1  0  0  0
 36 37  1  0  0  0
 37 38  1  0  0  0
 38 39  1  0  0  0
 39 40  1  0  0  0
 40 41  1  0  0  0
 29 24  1  0  0  0
  9  3  1  0  0  0
 35 30  1  0  0  0
 41 36  1  0  0  0
 17 12  1  0  0  0
  1  2  1  0  0  0
 10 11  1  0  0  0
M  END
> <minimizedAffinity>
-8.43287

> <CNNscore>
0.3532034457

> <CNNaffinity>
6.9613389969

> <CNN_VS>
2.4587688446

> <CNNaffinity_variance>
0.1964020729

$$$$
[H]c1nc(N([H])c2c([H])c([H])c(N3C([H])([H])C([H])([H])C([H])(N4C([H])([H])C([H])([H])C([H])([H])C([H])([H])C4([H])[H])C([H])([H])C3([H])[H])c([H])c2OC([H])([H])[H])nc(N([H])c2c([H])c([H])c([H])c([H])c2S(=O)(=O)C([H])(C([H])([H])[H])C([H])([H])[H])c1Cl


 43 47  0  0  0  0  0  0  0  0999 V2000
   33.6933  -15.5797   36.1089 N   0  0  0  0  0  0  0  0  0  0  0  0
   32.7416  -16.0053   35.8496 H   0  0  0  0  0  0  0  0  0  0  0  0
   33.7085  -14.2233   36.5043 C   0  0  0  0  0  0  0  0  0  0  0  0
   34.5306  -13.2777   36.0783 N   0  0  0  0  0  0  0  0  0  0  0  0
   34.4536  -12.0387   36.5585 C   0  0  0  0  0  0  0  0  0  0  0  0
   33.5393  -11.6550   37.5080 C   0  0  0  0  0  0  0  0  0  0  0  0
   33.4680  -10.0167   38.1214 Cl  0  0  0  0  0  0  0  0  0  0  0  0
   32.6476  -12.6486   37.9790 C   0  0  0  0  0  0  0  0  0  0  0  0
   32.8105  -13.8485   37.4343 N   0  0  0  0  0  0  0  0  0  0  0  0
   31.6988  -12.2904   38.9554 N   0  0  0  0  0  0  0  0  0  0  0  0
   32.0946  -12.2848   39.9527 H   0  0  0  0  0  0  0  0  0  0  0  0
   30.3474  -11.9970   38.7410 C   0  0  0  0  0  0  0  0  0  0  0  0
   29.8820  -11.2221   37.6894 C   0  0  0  0  0  0  0  0  0  0  0  0
   28.5241  -11.0125   37.4217 C   0  0  0  0  0  0  0  0  0  0  0  0
   27.5971  -11.5989   38.2353 C   0  0  0  0  0  0  0  0  0  0  0  0
   28.0338  -12.3657   39.2803 C   0  0  0  0  0  0  0  0  0  0  0  0
   29.3935  -12.5955   39.5773 C   0  0  0  0  0  0  0  0  0  0  0  0
   29.7986  -13.4972   40.9839 S   0  0  0  0  0  0  0  0  0  0  0  0
   30.1047  -14.9412   40.4956 O   0  0  0  0  0  0  0  0  0  0  0  0
   31.1439  -13.1031   41.5953 O   0  0  0  0  0  0  0  0  0  0  0  0
   28.5385  -13.6910   42.1768 C   0  0  0  0  0  0  0  0  0  0  0  0
   28.7046  -14.8602   43.0586 C   0  0  0  0  0  0  0  0  0  0  0  0
   28.4141  -12.3882   43.0122 C   0  0  0  0  0  0  0  0  0  0  0  0
   34.7159  -17.5177   35.0906 C   0  0  0  0  0  0  0  0  0  0  0  0
   35.7150  -18.4362   34.9076 C   0  0  0  0  0  0  0  0  0  0  0  0
   36.8614  -18.3516   35.6406 C   0  0  0  0  0  0  0  0  0  0  0  0
   36.9748  -17.3293   36.5517 C   0  0  0  0  0  0  0  0  0  0  0  0
   35.9488  -16.4052   36.7238 C   0  0  0  0  0  0  0  0  0  0  0  0
   34.7780  -16.4633   36.0008 C   0  0  0  0  0  0  0  0  0  0  0  0
   37.9235  -19.3314   35.4684 N   0  0  0  0  0  0  0  0  0  0  0  0
   38.0051  -19.9151   34.1751 C   0  0  0  0  0  0  0  0  0  0  0  0
   39.0537  -20.9737   34.1334 C   0  0  0  0  0  0  0  0  0  0  0  0
   40.3372  -20.4882   34.8106 C   0  0  0  0  0  0  0  0  0  0  0  0
   40.0372  -20.4115   36.2653 C   0  0  0  0  0  0  0  0  0  0  0  0
   38.7968  -19.6383   36.5505 C   0  0  0  0  0  0  0  0  0  0  0  0
   41.3956  -21.3461   34.4610 N   0  0  0  0  0  0  0  0  0  0  0  0
   41.5884  -21.6972   33.1068 C   0  0  0  0  0  0  0  0  0  0  0  0
   41.7580  -23.2247   33.0711 C   0  0  0  0  0  0  0  0  0  0  0  0
   42.4879  -23.6293   34.3399 C   0  0  0  0  0  0  0  0  0  0  0  0
   43.4043  -22.5370   34.8547 C   0  0  0  0  0  0  0  0  0  0  0  0
   42.5900  -21.2922   35.2443 C   0  0  0  0  0  0  0  0  0  0  0  0
   32.9134  -18.8931   34.1801 C   0  0  0  0  0  0  0  0  0  0  0  0
   33.5448  -17.6242   34.3254 O   0  0  0  0  0  0  0  0  0  0  0  0
 42 43  1  0  0  0
 43 24  1  0  0  0
 24 25  2  0  0  0
 25 26  1  0  0  0
 26 27  2  0  0  0
 27 28  1  0  0  0
 28 29  2  0  0  0
 29  1  1  0  0  0
  1  3  1  0  0  0
  3  4  2  0  0  0
  4  5  1  0  0  0
  5  6  2  0  0  0
  6  7  1  0  0  0
  6  8  1  0  0  0
  8 10  1  0  0  0
 10 12  1  0  0  0
 12 13  2  0  0  0
 13 14  1  0  0  0
 14 15  2  0  0  0
 15 16  1  0  0  0
 16 17  2  0  0  0
 17 18  1  0  0  0
 18 19  2  0  0  0
 18 20  2  0  0  0
 18 21  1  0  0  0
 21 22  1  0  0  0
 21 23  1  0  0  0
  8  9  2  0  0  0
 26 30  1  0  0  0
 30 31  1  0  0  0
 31 32  1  0  0  0
 32 33  1  0  0  0
 33 34  1  0  0  0
 34 35  1  0  0  0
 33 36  1  0  0  0
 36 37  1  0  0  0
 37 38  1  0  0  0
 38 39  1  0  0  0
 39 40  1  0  0  0
 40 41  1  0  0  0
 29 24  1  0  0  0
  9  3  1  0  0  0
 35 30  1  0  0  0
 41 36  1  0  0  0
 17 12  1  0  0  0
  1  2  1  0  0  0
 10 11  1  0  0  0
M  END
> <minimizedAffinity>
-8.60519

> <CNNscore>
0.2585443854

> <CNNaffinity>
6.7955307961

> <CNN_VS>
1.7569463253

> <CNNaffinity_variance>
0.1506485492

$$$$
[H]c1nc(N([H])c2c([H])c([H])c(N3C([H])([H])C([H])([H])C([H])(N4C([H])([H])C([H])([H])C([H])([H])C([H])([H])C4([H])[H])C([H])([H])C3([H])[H])c([H])c2OC([H])([H])[H])nc(N([H])c2c([H])c([H])c([H])c([H])c2S(=O)(=O)C([H])(C([H])([H])[H])C([H])([H])[H])c1Cl


 43 47  0  0  0  0  0  0  0  0999 V2000
   34.1204  -12.7319   37.7620 N   0  0  0  0  0  0  0  0  0  0  0  0
   34.8314  -12.0810   38.2363 H   0  0  0  0  0  0  0  0  0  0  0  0
   32.7742  -12.3043   37.7296 C   0  0  0  0  0  0  0  0  0  0  0  0
   32.2840  -11.2626   37.0769 N   0  0  0  0  0  0  0  0  0  0  0  0
   30.9918  -10.9533   37.1564 C   0  0  0  0  0  0  0  0  0  0  0  0
   30.0904  -11.6720   37.9019 C   0  0  0  0  0  0  0  0  0  0  0  0
   28.3972  -11.2350   37.9880 Cl  0  0  0  0  0  0  0  0  0  0  0  0
   30.5903  -12.7921   38.6088 C   0  0  0  0  0  0  0  0  0  0  0  0
   31.8915  -13.0108   38.4600 N   0  0  0  0  0  0  0  0  0  0  0  0
   29.6940  -13.5499   39.3859 N   0  0  0  0  0  0  0  0  0  0  0  0
   29.4487  -14.4991   38.9499 H   0  0  0  0  0  0  0  0  0  0  0  0
   29.1019  -13.1649   40.5941 C   0  0  0  0  0  0  0  0  0  0  0  0
   29.0998  -11.8639   41.0739 C   0  0  0  0  0  0  0  0  0  0  0  0
   28.4227  -11.4651   42.2324 C   0  0  0  0  0  0  0  0  0  0  0  0
   27.7219  -12.4016   42.9374 C   0  0  0  0  0  0  0  0  0  0  0  0
   27.7122  -13.6919   42.4837 C   0  0  0  0  0  0  0  0  0  0  0  0
   28.3844  -14.1256   41.3219 C   0  0  0  0  0  0  0  0  0  0  0  0
   28.3702  -15.7987   40.9264 S   0  0  0  0  0  0  0  0  0  0  0  0
   27.7945  -15.8950   39.4853 O   0  0  0  0  0  0  0  0  0  0  0  0
   29.7662  -16.3901   40.7244 O   0  0  0  0  0  0  0  0  0  0  0  0
   27.3302  -16.8194   41.8880 C   0  0  0  0  0  0  0  0  0  0  0  0
   26.8139  -18.0058   41.1820 C   0  0  0  0  0  0  0  0  0  0  0  0
   28.0726  -17.2349   43.1867 C   0  0  0  0  0  0  0  0  0  0  0  0
   36.0416  -14.1302   37.3234 C   0  0  0  0  0  0  0  0  0  0  0  0
   36.6744  -15.2511   36.8558 C   0  0  0  0  0  0  0  0  0  0  0  0
   35.9507  -16.2513   36.2774 C   0  0  0  0  0  0  0  0  0  0  0  0
   34.5886  -16.0959   36.1840 C   0  0  0  0  0  0  0  0  0  0  0  0
   33.9631  -14.9497   36.6649 C   0  0  0  0  0  0  0  0  0  0  0  0
   34.6649  -13.9208   37.2529 C   0  0  0  0  0  0  0  0  0  0  0  0
   36.6127  -17.4397   35.7606 N   0  0  0  0  0  0  0  0  0  0  0  0
   36.9364  -17.3993   34.3773 C   0  0  0  0  0  0  0  0  0  0  0  0
   37.5150  -18.6972   33.9273 C   0  0  0  0  0  0  0  0  0  0  0  0
   38.5679  -19.1918   34.9215 C   0  0  0  0  0  0  0  0  0  0  0  0
   37.8270  -19.5951   36.1465 C   0  0  0  0  0  0  0  0  0  0  0  0
   36.9004  -18.5328   36.6267 C   0  0  0  0  0  0  0  0  0  0  0  0
   39.3289  -20.2096   34.3187 N   0  0  0  0  0  0  0  0  0  0  0  0
   38.8336  -21.5319   34.3023 C   0  0  0  0  0  0  0  0  0  0  0  0
   39.9813  -22.4347   34.7830 C   0  0  0  0  0  0  0  0  0  0  0  0
   41.2777  -21.8285   34.2749 C   0  0  0  0  0  0  0  0  0  0  0  0
   41.0901  -21.0586   32.9825 C   0  0  0  0  0  0  0  0  0  0  0  0
   40.1507  -19.8613   33.2023 C   0  0  0  0  0  0  0  0  0  0  0  0
   38.2224  -13.1181   37.7582 C   0  0  0  0  0  0  0  0  0  0  0  0
   36.8063  -13.1135   37.9148 O   0  0  0  0  0  0  0  0  0  0  0  0
 42 43  1  0  0  0
 43 24  1  0  0  0
 24 25  2  0  0  0
 25 26  1  0  0  0
 26 27  2  0  0  0
 27 28  1  0  0  0
 28 29  2  0  0  0
 29  1  1  0  0  0
  1  3  1  0  0  0
  3  4  2  0  0  0
  4  5  1  0  0  0
  5  6  2  0  0  0
  6  7  1  0  0  0
  6  8  1  0  0  0
  8 10  1  0  0  0
 10 12  1  0  0  0
 12 13  2  0  0  0
 13 14  1  0  0  0
 14 15  2  0  0  0
 15 16  1  0  0  0
 16 17  2  0  0  0
 17 18  1  0  0  0
 18 19  2  0  0  0
 18 20  2  0  0  0
 18 21  1  0  0  0
 21 22  1  0  0  0
 21 23  1  0  0  0
  8  9  2  0  0  0
 26 30  1  0  0  0
 30 31  1  0  0  0
 31 32  1  0  0  0
 32 33  1  0  0  0
 33 34  1  0  0  0
 34 35  1  0  0  0
 33 36  1  0  0  0
 36 37  1  0  0  0
 37 38  1  0  0  0
 38 39  1  0  0  0
 39 40  1  0  0  0
 40 41  1  0  0  0
 29 24  1  0  0  0
  9  3  1  0  0  0
 35 30  1  0  0  0
 41 36  1  0  0  0
 17 12  1  0  0  0
  1  2  1  0  0  0
 10 11  1  0  0  0
M  END
> <minimizedAffinity>
-7.85135

> <CNNscore>
0.2552072108

> <CNNaffinity>
6.9334120750

> <CNN_VS>
1.7694567442

> <CNNaffinity_variance>
0.1331097931

$$$$
[H]c1nc(N([H])c2c([H])c([H])c(N3C([H])([H])C([H])([H])C([H])(N4C([H])([H])C([H])([H])C([H])([H])C([H])([H])C4([H])[H])C([H])([H])C3([H])[H])c([H])c2OC([H])([H])[H])nc(N([H])c2c([H])c([H])c([H])c([H])c2S(=O)(=O)C([H])(C([H])([H])[H])C([H])([H])[H])c1Cl


 43 47  0  0  0  0  0  0  0  0999 V2000
   33.5270  -15.2784   36.2074 N   0  0  0  0  0  0  0  0  0  0  0  0
   32.5621  -15.7161   36.0294 H   0  0  0  0  0  0  0  0  0  0  0  0
   33.5607  -13.9116   36.5638 C   0  0  0  0  0  0  0  0  0  0  0  0
   34.5544  -13.0602   36.3655 N   0  0  0  0  0  0  0  0  0  0  0  0
   34.4655  -11.7984   36.7799 C   0  0  0  0  0  0  0  0  0  0  0  0
   33.3650  -11.2950   37.4282 C   0  0  0  0  0  0  0  0  0  0  0  0
   33.2826   -9.6303   37.9641 Cl  0  0  0  0  0  0  0  0  0  0  0  0
   32.2879  -12.1862   37.6514 C   0  0  0  0  0  0  0  0  0  0  0  0
   32.4805  -13.4193   37.1981 N   0  0  0  0  0  0  0  0  0  0  0  0
   31.1447  -11.7040   38.3164 N   0  0  0  0  0  0  0  0  0  0  0  0
   30.7544  -10.7992   37.8919 H   0  0  0  0  0  0  0  0  0  0  0  0
   30.5376  -12.2608   39.4477 C   0  0  0  0  0  0  0  0  0  0  0  0
   31.1806  -13.1193   40.3265 C   0  0  0  0  0  0  0  0  0  0  0  0
   30.6021  -13.5957   41.5088 C   0  0  0  0  0  0  0  0  0  0  0  0
   29.3337  -13.1993   41.8242 C   0  0  0  0  0  0  0  0  0  0  0  0
   28.6795  -12.3545   40.9704 C   0  0  0  0  0  0  0  0  0  0  0  0
   29.2337  -11.8579   39.7720 C   0  0  0  0  0  0  0  0  0  0  0  0
   28.2587  -10.8848   38.7433 S   0  0  0  0  0  0  0  0  0  0  0  0
   28.9160   -9.4758   38.7347 O   0  0  0  0  0  0  0  0  0  0  0  0
   28.3616  -11.2652   37.2656 O   0  0  0  0  0  0  0  0  0  0  0  0
   26.6155  -10.6037   39.2620 C   0  0  0  0  0  0  0  0  0  0  0  0
   26.2553   -9.1824   39.4119 C   0  0  0  0  0  0  0  0  0  0  0  0
   25.6382  -11.3167   38.2888 C   0  0  0  0  0  0  0  0  0  0  0  0
   34.4948  -17.2260   35.1544 C   0  0  0  0  0  0  0  0  0  0  0  0
   35.4855  -18.1427   34.9228 C   0  0  0  0  0  0  0  0  0  0  0  0
   36.6743  -18.0432   35.5827 C   0  0  0  0  0  0  0  0  0  0  0  0
   36.8382  -17.0079   36.4713 C   0  0  0  0  0  0  0  0  0  0  0  0
   35.8200  -16.0858   36.6936 C   0  0  0  0  0  0  0  0  0  0  0  0
   34.6074  -16.1588   36.0448 C   0  0  0  0  0  0  0  0  0  0  0  0
   37.7287  -19.0208   35.3589 N   0  0  0  0  0  0  0  0  0  0  0  0
   38.1304  -19.1788   34.0048 C   0  0  0  0  0  0  0  0  0  0  0  0
   39.1370  -20.2701   33.8714 C   0  0  0  0  0  0  0  0  0  0  0  0
   40.2111  -20.1483   34.9546 C   0  0  0  0  0  0  0  0  0  0  0  0
   39.5485  -20.4980   36.2394 C   0  0  0  0  0  0  0  0  0  0  0  0
   38.2893  -19.7333   36.4570 C   0  0  0  0  0  0  0  0  0  0  0  0
   41.3096  -20.9551   34.6072 N   0  0  0  0  0  0  0  0  0  0  0  0
   41.4581  -21.3910   33.2722 C   0  0  0  0  0  0  0  0  0  0  0  0
   41.7357  -22.9018   33.3339 C   0  0  0  0  0  0  0  0  0  0  0  0
   42.5564  -23.1609   34.5852 C   0  0  0  0  0  0  0  0  0  0  0  0
   43.4165  -21.9735   34.9702 C   0  0  0  0  0  0  0  0  0  0  0  0
   42.5352  -20.7620   35.3167 C   0  0  0  0  0  0  0  0  0  0  0  0
   32.5916  -18.5956   34.4678 C   0  0  0  0  0  0  0  0  0  0  0  0
   33.2795  -17.3479   34.4642 O   0  0  0  0  0  0  0  0  0  0  0  0
 42 43  1  0  0  0
 43 24  1  0  0  0
 24 25  2  0  0  0
 25 26  1  0  0  0
 26 27  2  0  0  0
 27 28  1  0  0  0
 28 29  2  0  0  0
 29  1  1  0  0  0
  1  3  1  0  0  0
  3  4  2  0  0  0
  4  5  1  0  0  0
  5  6  2  0  0  0
  6  7  1  0  0  0
  6  8  1  0  0  0
  8 10  1  0  0  0
 10 12  1  0  0  0
 12 13  2  0  0  0
 13 14  1  0  0  0
 14 15  2  0  0  0
 15 16  1  0  0  0
 16 17  2  0  0  0
 17 18  1  0  0  0
 18 19  2  0  0  0
 18 20  2  0  0  0
 18 21  1  0  0  0
 21 22  1  0  0  0
 21 23  1  0  0  0
  8  9  2  0  0  0
 26 30  1  0  0  0
 30 31  1  0  0  0
 31 32  1  0  0  0
 32 33  1  0  0  0
 33 34  1  0  0  0
 34 35  1  0  0  0
 33 36  1  0  0  0
 36 37  1  0  0  0
 37 38  1  0  0  0
 38 39  1  0  0  0
 39 40  1  0  0  0
 40 41  1  0  0  0
 29 24  1  0  0  0
  9  3  1  0  0  0
 35 30  1  0  0  0
 41 36  1  0  0  0
 17 12  1  0  0  0
  1  2  1  0  0  0
 10 11  1  0  0  0
M  END
> <minimizedAffinity>
-8.33743

> <CNNscore>
0.2515206337

> <CNNaffinity>
6.9137201309

> <CNN_VS>
1.7389432192

> <CNNaffinity_variance>
0.0767517537

$$$$
[H]c1nc(N([H])c2c([H])c([H])c(N3C([H])([H])C([H])([H])C([H])(N4C([H])([H])C([H])([H])C([H])([H])C([H])([H])C4([H])[H])C([H])([H])C3([H])[H])c([H])c2OC([H])([H])[H])nc(N([H])c2c([H])c([H])c([H])c([H])c2S(=O)(=O)C([H])(C([H])([H])[H])C([H])([H])[H])c1Cl


 43 47  0  0  0  0  0  0  0  0999 V2000
   28.7462  -20.3652   43.5598 N   0  0  0  0  0  0  0  0  0  0  0  0
   28.1126  -20.4533   44.4229 H   0  0  0  0  0  0  0  0  0  0  0  0
   29.3578  -21.5466   43.0838 C   0  0  0  0  0  0  0  0  0  0  0  0
   28.7649  -22.6991   42.8156 N   0  0  0  0  0  0  0  0  0  0  0  0
   29.4693  -23.7484   42.3980 C   0  0  0  0  0  0  0  0  0  0  0  0
   30.8299  -23.7180   42.2176 C   0  0  0  0  0  0  0  0  0  0  0  0
   31.7268  -25.1186   41.6708 Cl  0  0  0  0  0  0  0  0  0  0  0  0
   31.4873  -22.4957   42.4970 C   0  0  0  0  0  0  0  0  0  0  0  0
   30.6916  -21.5146   42.9063 N   0  0  0  0  0  0  0  0  0  0  0  0
   32.8831  -22.4300   42.3258 N   0  0  0  0  0  0  0  0  0  0  0  0
   33.4339  -22.8086   43.1651 H   0  0  0  0  0  0  0  0  0  0  0  0
   33.5671  -21.9023   41.2249 C   0  0  0  0  0  0  0  0  0  0  0  0
   33.1919  -22.1153   39.9070 C   0  0  0  0  0  0  0  0  0  0  0  0
   33.8189  -21.5065   38.8136 C   0  0  0  0  0  0  0  0  0  0  0  0
   34.8598  -20.6533   39.0460 C   0  0  0  0  0  0  0  0  0  0  0  0
   35.2485  -20.4303   40.3383 C   0  0  0  0  0  0  0  0  0  0  0  0
   34.6386  -21.0284   41.4608 C   0  0  0  0  0  0  0  0  0  0  0  0
   35.2976  -20.7364   43.0217 S   0  0  0  0  0  0  0  0  0  0  0  0
   35.2361  -22.0950   43.7754 O   0  0  0  0  0  0  0  0  0  0  0  0
   36.8046  -20.4761   43.0092 O   0  0  0  0  0  0  0  0  0  0  0  0
   34.4221  -19.6234   44.0430 C   0  0  0  0  0  0  0  0  0  0  0  0
   33.4932  -18.7334   43.3237 C   0  0  0  0  0  0  0  0  0  0  0  0
   33.6747  -20.4167   45.1488 C   0  0  0  0  0  0  0  0  0  0  0  0
   27.9473  -18.6150   42.0979 C   0  0  0  0  0  0  0  0  0  0  0  0
   27.9715  -17.3667   41.5353 C   0  0  0  0  0  0  0  0  0  0  0  0
   28.9337  -16.4726   41.9007 C   0  0  0  0  0  0  0  0  0  0  0  0
   29.8599  -16.8634   42.8375 C   0  0  0  0  0  0  0  0  0  0  0  0
   29.8195  -18.1362   43.3983 C   0  0  0  0  0  0  0  0  0  0  0  0
   28.8622  -19.0630   43.0500 C   0  0  0  0  0  0  0  0  0  0  0  0
   28.9811  -15.1491   41.2976 N   0  0  0  0  0  0  0  0  0  0  0  0
   28.3346  -15.0345   40.0372 C   0  0  0  0  0  0  0  0  0  0  0  0
   28.5279  -13.6735   39.4609 C   0  0  0  0  0  0  0  0  0  0  0  0
   28.2810  -12.5987   40.5219 C   0  0  0  0  0  0  0  0  0  0  0  0
   29.4156  -12.6899   41.4791 C   0  0  0  0  0  0  0  0  0  0  0  0
   29.6343  -14.0783   41.9716 C   0  0  0  0  0  0  0  0  0  0  0  0
   28.1296  -11.3520   39.8885 N   0  0  0  0  0  0  0  0  0  0  0  0
   28.3444  -11.2481   38.4966 C   0  0  0  0  0  0  0  0  0  0  0  0
   29.2685  -10.0377   38.2860 C   0  0  0  0  0  0  0  0  0  0  0  0
   28.9085   -9.0042   39.3389 C   0  0  0  0  0  0  0  0  0  0  0  0
   27.4539   -9.0861   39.7577 C   0  0  0  0  0  0  0  0  0  0  0  0
   27.1605  -10.4439   40.4169 C   0  0  0  0  0  0  0  0  0  0  0  0
   25.5905  -19.2574   42.0506 C   0  0  0  0  0  0  0  0  0  0  0  0
   26.9482  -19.5188   41.7067 O   0  0  0  0  0  0  0  0  0  0  0  0
 42 43  1  0  0  0
 43 24  1  0  0  0
 24 25  2  0  0  0
 25 26  1  0  0  0
 26 27  2  0  0  0
 27 28  1  0  0  0
 28 29  2  0  0  0
 29  1  1  0  0  0
  1  3  1  0  0  0
  3  4  2  0  0  0
  4  5  1  0  0  0
  5  6  2  0  0  0
  6  7  1  0  0  0
  6  8  1  0  0  0
  8 10  1  0  0  0
 10 12  1  0  0  0
 12 13  2  0  0  0
 13 14  1  0  0  0
 14 15  2  0  0  0
 15 16  1  0  0  0
 16 17  2  0  0  0
 17 18  1  0  0  0
 18 19  2  0  0  0
 18 20  2  0  0  0
 18 21  1  0  0  0
 21 22  1  0  0  0
 21 23  1  0  0  0
  8  9  2  0  0  0
 26 30  1  0  0  0
 30 31  1  0  0  0
 31 32  1  0  0  0
 32 33  1  0  0  0
 33 34  1  0  0  0
 34 35  1  0  0  0
 33 36  1  0  0  0
 36 37  1  0  0  0
 37 38  1  0  0  0
 38 39  1  0  0  0
 39 40  1  0  0  0
 40 41  1  0  0  0
 29 24  1  0  0  0
  9  3  1  0  0  0
 35 30  1  0  0  0
 41 36  1  0  0  0
 17 12  1  0  0  0
  1  2  1  0  0  0
 10 11  1  0  0  0
M  END
> <minimizedAffinity>
-5.38110

> <CNNscore>
0.2340363115

> <CNNaffinity>
5.8575897217

> <CNN_VS>
1.3708887100

> <CNNaffinity_variance>
0.3815715909

$$$$
[H]c1nc(N([H])c2c([H])c([H])c(N3C([H])([H])C([H])([H])C([H])(N4C([H])([H])C([H])([H])C([H])([H])C([H])([H])C4([H])[H])C([H])([H])C3([H])[H])c([H])c2OC([H])([H])[H])nc(N([H])c2c([H])c([H])c([H])c([H])c2S(=O)(=O)C([H])(C([H])([H])[H])C([H])([H])[H])c1Cl


 43 47  0  0  0  0  0  0  0  0999 V2000
   33.9487  -17.8991   34.6228 N   0  0  0  0  0  0  0  0  0  0  0  0
   33.7680  -16.9003   34.2706 H   0  0  0  0  0  0  0  0  0  0  0  0
   32.8197  -18.7143   34.8614 C   0  0  0  0  0  0  0  0  0  0  0  0
   31.6533  -18.6634   34.2381 N   0  0  0  0  0  0  0  0  0  0  0  0
   30.6579  -19.4763   34.5844 C   0  0  0  0  0  0  0  0  0  0  0  0
   30.7607  -20.4067   35.5887 C   0  0  0  0  0  0  0  0  0  0  0  0
   29.4296  -21.4582   36.0218 Cl  0  0  0  0  0  0  0  0  0  0  0  0
   31.9994  -20.4814   36.2702 C   0  0  0  0  0  0  0  0  0  0  0  0
   32.9227  -19.6268   35.8455 N   0  0  0  0  0  0  0  0  0  0  0  0
   32.1387  -21.4223   37.3080 N   0  0  0  0  0  0  0  0  0  0  0  0
   31.6161  -21.1491   38.2043 H   0  0  0  0  0  0  0  0  0  0  0  0
   32.8956  -22.5989   37.2746 C   0  0  0  0  0  0  0  0  0  0  0  0
   32.6318  -23.6641   36.4269 C   0  0  0  0  0  0  0  0  0  0  0  0
   33.4481  -24.7968   36.3268 C   0  0  0  0  0  0  0  0  0  0  0  0
   34.5696  -24.8675   37.1031 C   0  0  0  0  0  0  0  0  0  0  0  0
   34.8481  -23.8291   37.9485 C   0  0  0  0  0  0  0  0  0  0  0  0
   34.0461  -22.6754   38.0734 C   0  0  0  0  0  0  0  0  0  0  0  0
   34.4623  -21.4946   39.2516 S   0  0  0  0  0  0  0  0  0  0  0  0
   34.5657  -20.1438   38.4887 O   0  0  0  0  0  0  0  0  0  0  0  0
   33.3322  -21.1895   40.2359 O   0  0  0  0  0  0  0  0  0  0  0  0
   36.0131  -21.6826   40.0314 C   0  0  0  0  0  0  0  0  0  0  0  0
   37.1453  -21.0962   39.2920 C   0  0  0  0  0  0  0  0  0  0  0  0
   35.9404  -21.1044   41.4705 C   0  0  0  0  0  0  0  0  0  0  0  0
   36.0044  -17.6924   35.8758 C   0  0  0  0  0  0  0  0  0  0  0  0
   37.3262  -17.9416   36.1331 C   0  0  0  0  0  0  0  0  0  0  0  0
   38.0406  -18.7548   35.3042 C   0  0  0  0  0  0  0  0  0  0  0  0
   37.3966  -19.3052   34.2224 C   0  0  0  0  0  0  0  0  0  0  0  0
   36.0527  -19.0405   33.9770 C   0  0  0  0  0  0  0  0  0  0  0  0
   35.3034  -18.2227   34.7934 C   0  0  0  0  0  0  0  0  0  0  0  0
   39.4502  -19.0137   35.5564 N   0  0  0  0  0  0  0  0  0  0  0  0
   40.3005  -18.8904   34.4243 C   0  0  0  0  0  0  0  0  0  0  0  0
   41.7001  -19.2738   34.7647 C   0  0  0  0  0  0  0  0  0  0  0  0
   42.1280  -18.6337   36.0872 C   0  0  0  0  0  0  0  0  0  0  0  0
   41.3536  -19.3232   37.1534 C   0  0  0  0  0  0  0  0  0  0  0  0
   39.8925  -19.3532   36.8666 C   0  0  0  0  0  0  0  0  0  0  0  0
   43.5265  -18.7207   36.2101 N   0  0  0  0  0  0  0  0  0  0  0  0
   44.2759  -17.5528   36.4720 C   0  0  0  0  0  0  0  0  0  0  0  0
   45.4391  -17.5453   35.4669 C   0  0  0  0  0  0  0  0  0  0  0  0
   45.8525  -18.9892   35.2415 C   0  0  0  0  0  0  0  0  0  0  0  0
   45.5865  -19.8636   36.4509 C   0  0  0  0  0  0  0  0  0  0  0  0
   44.0793  -19.9236   36.7492 C   0  0  0  0  0  0  0  0  0  0  0  0
   35.6358  -15.4732   36.8291 C   0  0  0  0  0  0  0  0  0  0  0  0
   35.2889  -16.8523   36.7421 O   0  0  0  0  0  0  0  0  0  0  0  0
 42 43  1  0  0  0
 43 24  1  0  0  0
 24 25  2  0  0  0
 25 26  1  0  0  0
 26 27  2  0  0  0
 27 28  1  0  0  0
 28 29  2  0  0  0
 29  1  1  0  0  0
  1  3  1  0  0  0
  3  4  2  0  0  0
  4  5  1  0  0  0
  5  6  2  0  0  0
  6  7  1  0  0  0
  6  8  1  0  0  0
  8 10  1  0  0  0
 10 12  1  0  0  0
 12 13  2  0  0  0
 13 14  1  0  0  0
 14 15  2  0  0  0
 15 16  1  0  0  0
 16 17  2  0  0  0
 17 18  1  0  0  0
 18 19  2  0  0  0
 18 20  2  0  0  0
 18 21  1  0  0  0
 21 22  1  0  0  0
 21 23  1  0  0  0
  8  9  2  0  0  0
 26 30  1  0  0  0
 30 31  1  0  0  0
 31 32  1  0  0  0
 32 33  1  0  0  0
 33 34  1  0  0  0
 34 35  1  0  0  0
 33 36  1  0  0  0
 36 37  1  0  0  0
 37 38  1  0  0  0
 38 39  1  0  0  0
 39 40  1  0  0  0
 40 41  1  0  0  0
 29 24  1  0  0  0
  9  3  1  0  0  0
 35 30  1  0  0  0
 41 36  1  0  0  0
 17 12  1  0  0  0
  1  2  1  0  0  0
 10 11  1  0  0  0
M  END
> <minimizedAffinity>
-6.52611

> <CNNscore>
0.2030793279

> <CNNaffinity>
6.4170370102

> <CNN_VS>
1.3031675816

> <CNNaffinity_variance>
0.6871494651

$$$$
[H]c1nc(N([H])c2c([H])c([H])c(N3C([H])([H])C([H])([H])C([H])(N4C([H])([H])C([H])([H])C([H])([H])C([H])([H])C4([H])[H])C([H])([H])C3([H])[H])c([H])c2OC([H])([H])[H])nc(N([H])c2c([H])c([H])c([H])c([H])c2S(=O)(=O)C([H])(C([H])([H])[H])C([H])([H])[H])c1Cl


 43 47  0  0  0  0  0  0  0  0999 V2000
   33.5783  -15.1870   36.0388 N   0  0  0  0  0  0  0  0  0  0  0  0
   32.7049  -15.5554   35.5331 H   0  0  0  0  0  0  0  0  0  0  0  0
   33.5655  -13.8350   36.4488 C   0  0  0  0  0  0  0  0  0  0  0  0
   34.5459  -12.9548   36.3243 N   0  0  0  0  0  0  0  0  0  0  0  0
   34.4108  -11.7126   36.7832 C   0  0  0  0  0  0  0  0  0  0  0  0
   33.2737  -11.2595   37.4049 C   0  0  0  0  0  0  0  0  0  0  0  0
   33.1307   -9.6195   38.0009 Cl  0  0  0  0  0  0  0  0  0  0  0  0
   32.2099  -12.1824   37.5492 C   0  0  0  0  0  0  0  0  0  0  0  0
   32.4494  -13.3921   37.0570 N   0  0  0  0  0  0  0  0  0  0  0  0
   31.0299  -11.7521   38.1850 N   0  0  0  0  0  0  0  0  0  0  0  0
   30.5996  -10.8766   37.7381 H   0  0  0  0  0  0  0  0  0  0  0  0
   30.4321  -12.3226   39.3144 C   0  0  0  0  0  0  0  0  0  0  0  0
   31.1078  -13.1164   40.2289 C   0  0  0  0  0  0  0  0  0  0  0  0
   30.5319  -13.6037   41.4081 C   0  0  0  0  0  0  0  0  0  0  0  0
   29.2324  -13.2860   41.6832 C   0  0  0  0  0  0  0  0  0  0  0  0
   28.5459  -12.5062   40.7937 C   0  0  0  0  0  0  0  0  0  0  0  0
   29.0966  -12.0007   39.5974 C   0  0  0  0  0  0  0  0  0  0  0  0
   28.0860  -11.1182   38.5223 S   0  0  0  0  0  0  0  0  0  0  0  0
   28.8290  -11.0932   37.1568 O   0  0  0  0  0  0  0  0  0  0  0  0
   26.8026  -11.8591   38.1442 O   0  0  0  0  0  0  0  0  0  0  0  0
   27.8139   -9.4375   38.9092 C   0  0  0  0  0  0  0  0  0  0  0  0
   26.9126   -9.2106   40.0532 C   0  0  0  0  0  0  0  0  0  0  0  0
   29.1785   -8.7336   39.1391 C   0  0  0  0  0  0  0  0  0  0  0  0
   34.4431  -17.4136   35.6742 C   0  0  0  0  0  0  0  0  0  0  0  0
   35.3771  -18.4098   35.7777 C   0  0  0  0  0  0  0  0  0  0  0  0
   36.5523  -18.1775   36.4284 C   0  0  0  0  0  0  0  0  0  0  0  0
   36.7608  -16.9300   36.9654 C   0  0  0  0  0  0  0  0  0  0  0  0
   35.8000  -15.9300   36.8502 C   0  0  0  0  0  0  0  0  0  0  0  0
   34.6024  -16.1325   36.2009 C   0  0  0  0  0  0  0  0  0  0  0  0
   37.5458  -19.2326   36.5608 N   0  0  0  0  0  0  0  0  0  0  0  0
   38.8987  -18.8013   36.5026 C   0  0  0  0  0  0  0  0  0  0  0  0
   39.8309  -19.9637   36.5446 C   0  0  0  0  0  0  0  0  0  0  0  0
   39.4131  -20.9507   37.6368 C   0  0  0  0  0  0  0  0  0  0  0  0
   38.1534  -21.5852   37.1651 C   0  0  0  0  0  0  0  0  0  0  0  0
   37.1350  -20.5838   36.7434 C   0  0  0  0  0  0  0  0  0  0  0  0
   40.4750  -21.8387   37.8862 N   0  0  0  0  0  0  0  0  0  0  0  0
   40.5772  -23.0298   37.1345 C   0  0  0  0  0  0  0  0  0  0  0  0
   40.8046  -24.1661   38.1446 C   0  0  0  0  0  0  0  0  0  0  0  0
   41.6452  -23.6038   39.2775 C   0  0  0  0  0  0  0  0  0  0  0  0
   42.5540  -22.4794   38.8218 C   0  0  0  0  0  0  0  0  0  0  0  0
   41.7229  -21.2891   38.3149 C   0  0  0  0  0  0  0  0  0  0  0  0
   32.3424  -18.6518   35.5193 C   0  0  0  0  0  0  0  0  0  0  0  0
   33.2407  -17.6752   35.0004 O   0  0  0  0  0  0  0  0  0  0  0  0
 42 43  1  0  0  0
 43 24  1  0  0  0
 24 25  2  0  0  0
 25 26  1  0  0  0
 26 27  2  0  0  0
 27 28  1  0  0  0
 28 29  2  0  0  0
 29  1  1  0  0  0
  1  3  1  0  0  0
  3  4  2  0  0  0
  4  5  1  0  0  0
  5  6  2  0  0  0
  6  7  1  0  0  0
  6  8  1  0  0  0
  8 10  1  0  0  0
 10 12  1  0  0  0
 12 13  2  0  0  0
 13 14  1  0  0  0
 14 15  2  0  0  0
 15 16  1  0  0  0
 16 17  2  0  0  0
 17 18  1  0  0  0
 18 19  2  0  0  0
 18 20  2  0  0  0
 18 21  1  0  0  0
 21 22  1  0  0  0
 21 23  1  0  0  0
  8  9  2  0  0  0
 26 30  1  0  0  0
 30 31  1  0  0  0
 31 32  1  0  0  0
 32 33  1  0  0  0
 33 34  1  0  0  0
 34 35  1  0  0  0
 33 36  1  0  0  0
 36 37  1  0  0  0
 37 38  1  0  0  0
 38 39  1  0  0  0
 39 40  1  0  0  0
 40 41  1  0  0  0
 29 24  1  0  0  0
  9  3  1  0  0  0
 35 30  1  0  0  0
 41 36  1  0  0  0
 17 12  1  0  0  0
  1  2  1  0  0  0
 10 11  1  0  0  0
M  END
> <minimizedAffinity>
-7.50901

> <CNNscore>
0.1810212582

> <CNNaffinity>
6.7398567200

> <CNN_VS>
1.2200573683

> <CNNaffinity_variance>
0.0860837549

$$$$
[H]c1nc(N([H])c2c([H])c([H])c(N3C([H])([H])C([H])([H])C([H])(N4C([H])([H])C([H])([H])C([H])([H])C([H])([H])C4([H])[H])C([H])([H])C3([H])[H])c([H])c2OC([H])([H])[H])nc(N([H])c2c([H])c([H])c([H])c([H])c2S(=O)(=O)C([H])(C([H])([H])[H])C([H])([H])[H])c1Cl


 43 47  0  0  0  0  0  0  0  0999 V2000
   34.3668  -13.3399   37.8144 N   0  0  0  0  0  0  0  0  0  0  0  0
   35.0651  -12.7169   38.3421 H   0  0  0  0  0  0  0  0  0  0  0  0
   33.0245  -12.9023   37.7584 C   0  0  0  0  0  0  0  0  0  0  0  0
   32.3957  -12.3904   36.7124 N   0  0  0  0  0  0  0  0  0  0  0  0
   31.1300  -11.9892   36.8056 C   0  0  0  0  0  0  0  0  0  0  0  0
   30.3973  -12.0729   37.9636 C   0  0  0  0  0  0  0  0  0  0  0  0
   28.7347  -11.5316   38.0529 Cl  0  0  0  0  0  0  0  0  0  0  0  0
   31.0477  -12.6182   39.0968 C   0  0  0  0  0  0  0  0  0  0  0  0
   32.3072  -12.9863   38.8943 N   0  0  0  0  0  0  0  0  0  0  0  0
   30.3267  -12.7159   40.3019 N   0  0  0  0  0  0  0  0  0  0  0  0
   30.5299  -11.9151   40.9865 H   0  0  0  0  0  0  0  0  0  0  0  0
   29.4465  -13.7398   40.6697 C   0  0  0  0  0  0  0  0  0  0  0  0
   29.7141  -15.0892   40.4952 C   0  0  0  0  0  0  0  0  0  0  0  0
   28.8756  -16.1122   40.9532 C   0  0  0  0  0  0  0  0  0  0  0  0
   27.7269  -15.7739   41.6098 C   0  0  0  0  0  0  0  0  0  0  0  0
   27.4415  -14.4486   41.7911 C   0  0  0  0  0  0  0  0  0  0  0  0
   28.2643  -13.3948   41.3412 C   0  0  0  0  0  0  0  0  0  0  0  0
   27.7303  -11.7738   41.5482 S   0  0  0  0  0  0  0  0  0  0  0  0
   27.1785  -11.6848   42.9992 O   0  0  0  0  0  0  0  0  0  0  0  0
   28.8718  -10.7576   41.6059 O   0  0  0  0  0  0  0  0  0  0  0  0
   26.4049  -11.2534   40.5378 C   0  0  0  0  0  0  0  0  0  0  0  0
   25.1254  -11.9333   40.8079 C   0  0  0  0  0  0  0  0  0  0  0  0
   26.2420   -9.7137   40.6531 C   0  0  0  0  0  0  0  0  0  0  0  0
   36.2704  -14.7900   37.4797 C   0  0  0  0  0  0  0  0  0  0  0  0
   36.9106  -15.8972   36.9901 C   0  0  0  0  0  0  0  0  0  0  0  0
   36.2235  -16.8073   36.2428 C   0  0  0  0  0  0  0  0  0  0  0  0
   34.8900  -16.5766   36.0047 C   0  0  0  0  0  0  0  0  0  0  0  0
   34.2564  -15.4457   36.5105 C   0  0  0  0  0  0  0  0  0  0  0  0
   34.9217  -14.5068   37.2673 C   0  0  0  0  0  0  0  0  0  0  0  0
   36.8960  -17.9790   35.7020 N   0  0  0  0  0  0  0  0  0  0  0  0
   37.4011  -17.8316   34.3818 C   0  0  0  0  0  0  0  0  0  0  0  0
   37.9774  -19.1137   33.8856 C   0  0  0  0  0  0  0  0  0  0  0  0
   38.8672  -19.7539   34.9533 C   0  0  0  0  0  0  0  0  0  0  0  0
   37.9542  -20.2245   36.0289 C   0  0  0  0  0  0  0  0  0  0  0  0
   37.0191  -19.1601   36.4877 C   0  0  0  0  0  0  0  0  0  0  0  0
   39.6565  -20.7536   34.3567 N   0  0  0  0  0  0  0  0  0  0  0  0
   39.1727  -22.0790   34.2972 C   0  0  0  0  0  0  0  0  0  0  0  0
   40.3108  -22.9827   34.7987 C   0  0  0  0  0  0  0  0  0  0  0  0
   41.6188  -22.3568   34.3473 C   0  0  0  0  0  0  0  0  0  0  0  0
   41.4689  -21.5626   33.0648 C   0  0  0  0  0  0  0  0  0  0  0  0
   40.5129  -20.3769   33.2761 C   0  0  0  0  0  0  0  0  0  0  0  0
   38.2726  -13.4246   37.7903 C   0  0  0  0  0  0  0  0  0  0  0  0
   36.9972  -13.8667   38.2462 O   0  0  0  0  0  0  0  0  0  0  0  0
 42 43  1  0  0  0
 43 24  1  0  0  0
 24 25  2  0  0  0
 25 26  1  0  0  0
 26 27  2  0  0  0
 27 28  1  0  0  0
 28 29  2  0  0  0
 29  1  1  0  0  0
  1  3  1  0  0  0
  3  4  2  0  0  0
  4  5  1  0  0  0
  5  6  2  0  0  0
  6  7  1  0  0  0
  6  8  1  0  0  0
  8 10  1  0  0  0
 10 12  1  0  0  0
 12 13  2  0  0  0
 13 14  1  0  0  0
 14 15  2  0  0  0
 15 16  1  0  0  0
 16 17  2  0  0  0
 17 18  1  0  0  0
 18 19  2  0  0  0
 18 20  2  0  0  0
 18 21  1  0  0  0
 21 22  1  0  0  0
 21 23  1  0  0  0
  8  9  2  0  0  0
 26 30  1  0  0  0
 30 31  1  0  0  0
 31 32  1  0  0  0
 32 33  1  0  0  0
 33 34  1  0  0  0
 34 35  1  0  0  0
 33 36  1  0  0  0
 36 37  1  0  0  0
 37 38  1  0  0  0
 38 39  1  0  0  0
 39 40  1  0  0  0
 40 41  1  0  0  0
 29 24  1  0  0  0
  9  3  1  0  0  0
 35 30  1  0  0  0
 41 36  1  0  0  0
 17 12  1  0  0  0
  1  2  1  0  0  0
 10 11  1  0  0  0
M  END
> <minimizedAffinity>
-7.98498

> <CNNscore>
0.1784697175

> <CNNaffinity>
6.7233748436

> <CNN_VS>
1.1999188662

> <CNNaffinity_variance>
0.1669381410

$$$$
[H]c1nc(N([H])c2c([H])c([H])c(N3C([H])([H])C([H])([H])C([H])(N(C([H])([H])[H])C([H])([H])[H])C([H])([H])C3([H])[H])c([H])c2OC([H])([H])[H])nc(N([H])c2c([H])c([H])c([H])c([H])c2S(=O)(=O)C([H])(C([H])([H])[H])C([H])([H])[H])c1Cl


 40 43  0  0  0  0  0  0  0  0999 V2000
   32.2275  -18.7797   35.2206 C   0  0  0  0  0  0  0  0  0  0  0  0
   31.0891  -18.7912   34.5356 N   0  0  0  0  0  0  0  0  0  0  0  0
   30.1353  -19.7137   34.7135 C   0  0  0  0  0  0  0  0  0  0  0  0
   30.2933  -20.7140   35.6337 C   0  0  0  0  0  0  0  0  0  0  0  0
   29.0768  -21.9389   35.9140 Cl  0  0  0  0  0  0  0  0  0  0  0  0
   31.4857  -20.7528   36.3926 C   0  0  0  0  0  0  0  0  0  0  0  0
   32.3451  -19.7940   36.1275 N   0  0  0  0  0  0  0  0  0  0  0  0
   33.2909  -17.8449   35.0993 N   0  0  0  0  0  0  0  0  0  0  0  0
   33.0113  -16.7994   35.0710 H   0  0  0  0  0  0  0  0  0  0  0  0
   35.5265  -17.2940   35.7800 C   0  0  0  0  0  0  0  0  0  0  0  0
   36.8626  -17.5360   35.6984 C   0  0  0  0  0  0  0  0  0  0  0  0
   37.4077  -18.5168   34.9130 C   0  0  0  0  0  0  0  0  0  0  0  0
   36.5436  -19.2855   34.1767 C   0  0  0  0  0  0  0  0  0  0  0  0
   35.1693  -19.0865   34.2181 C   0  0  0  0  0  0  0  0  0  0  0  0
   34.6484  -18.0988   35.0116 C   0  0  0  0  0  0  0  0  0  0  0  0
   38.8209  -18.7704   34.8304 N   0  0  0  0  0  0  0  0  0  0  0  0
   39.3841  -18.7520   33.5026 C   0  0  0  0  0  0  0  0  0  0  0  0
   40.8651  -18.8305   33.4290 C   0  0  0  0  0  0  0  0  0  0  0  0
   41.5351  -18.5170   34.7310 C   0  0  0  0  0  0  0  0  0  0  0  0
   40.9792  -19.4474   35.7892 C   0  0  0  0  0  0  0  0  0  0  0  0
   39.5543  -19.0175   36.0284 C   0  0  0  0  0  0  0  0  0  0  0  0
   42.9696  -18.6084   34.6075 N   0  0  0  0  0  0  0  0  0  0  0  0
   43.6282  -17.3574   34.8360 C   0  0  0  0  0  0  0  0  0  0  0  0
   43.5318  -19.6930   35.3777 C   0  0  0  0  0  0  0  0  0  0  0  0
   35.2822  -14.9584   36.3204 C   0  0  0  0  0  0  0  0  0  0  0  0
   34.9889  -16.3016   36.5762 O   0  0  0  0  0  0  0  0  0  0  0  0
   31.6816  -21.8022   37.3171 N   0  0  0  0  0  0  0  0  0  0  0  0
   31.3319  -21.6112   38.2783 H   0  0  0  0  0  0  0  0  0  0  0  0
   32.3124  -23.0160   37.0596 C   0  0  0  0  0  0  0  0  0  0  0  0
   31.7354  -24.0391   36.3068 C   0  0  0  0  0  0  0  0  0  0  0  0
   32.4370  -25.1861   35.9672 C   0  0  0  0  0  0  0  0  0  0  0  0
   33.7343  -25.3573   36.3615 C   0  0  0  0  0  0  0  0  0  0  0  0
   34.3003  -24.3546   37.1006 C   0  0  0  0  0  0  0  0  0  0  0  0
   33.6358  -23.1781   37.4723 C   0  0  0  0  0  0  0  0  0  0  0  0
   34.4632  -22.0884   38.5006 S   0  0  0  0  0  0  0  0  0  0  0  0
   33.3979  -21.3078   39.3052 O   0  0  0  0  0  0  0  0  0  0  0  0
   35.2840  -22.7383   39.5875 O   0  0  0  0  0  0  0  0  0  0  0  0
   35.4093  -20.8369   37.6956 C   0  0  0  0  0  0  0  0  0  0  0  0
   35.4042  -19.5450   38.5188 C   0  0  0  0  0  0  0  0  0  0  0  0
   36.8169  -21.1681   37.4197 C   0  0  0  0  0  0  0  0  0  0  0  0
 25 26  1  0  0  0
 26 10  1  0  0  0
 10 11  2  0  0  0
 11 12  1  0  0  0
 12 13  2  0  0  0
 13 14  1  0  0  0
 14 15  2  0  0  0
 15  8  1  0  0  0
  8  1  1  0  0  0
  1  2  2  0  0  0
  2  3  1  0  0  0
  3  4  2  0  0  0
  4  5  1  0  0  0
  4  6  1  0  0  0
  6 27  1  0  0  0
 27 29  1  0  0  0
 29 30  2  0  0  0
 30 31  1  0  0  0
 31 32  2  0  0  0
 32 33  1  0  0  0
 33 34  2  0  0  0
 34 35  1  0  0  0
 35 36  2  0  0  0
 35 37  2  0  0  0
 35 38  1  0  0  0
 38 39  1  0  0  0
 38 40  1  0  0  0
  6  7  2  0  0  0
 12 16  1  0  0  0
 16 17  1  0  0  0
 17 18  1  0  0  0
 18 19  1  0  0  0
 19 20  1  0  0  0
 20 21  1  0  0  0
 19 22  1  0  0  0
 22 23  1  0  0  0
 22 24  1  0  0  0
 15 10  1  0  0  0
  7  1  1  0  0  0
 21 16  1  0  0  0
 34 29  1  0  0  0
  8  9  1  0  0  0
 27 28  1  0  0  0
M  END
> <minimizedAffinity>
-6.41810

> <CNNscore>
0.5660398006

> <CNNaffinity>
6.7357072830

> <CNN_VS>
3.8126783371

> <CNNaffinity_variance>
0.4957972467

$$$$
[H]c1nc(N([H])c2c([H])c([H])c(N3C([H])([H])C([H])([H])C([H])(N(C([H])([H])[H])C([H])([H])[H])C([H])([H])C3([H])[H])c([H])c2OC([H])([H])[H])nc(N([H])c2c([H])c([H])c([H])c([H])c2S(=O)(=O)C([H])(C([H])([H])[H])C([H])([H])[H])c1Cl


 40 43  0  0  0  0  0  0  0  0999 V2000
   33.7175  -14.3171   36.6379 C   0  0  0  0  0  0  0  0  0  0  0  0
   34.4939  -13.3787   36.1069 N   0  0  0  0  0  0  0  0  0  0  0  0
   34.4480  -12.0928   36.4769 C   0  0  0  0  0  0  0  0  0  0  0  0
   33.5761  -11.6749   37.4451 C   0  0  0  0  0  0  0  0  0  0  0  0
   33.4804  -10.0104   37.9738 Cl  0  0  0  0  0  0  0  0  0  0  0  0
   32.7242  -12.6299   38.0463 C   0  0  0  0  0  0  0  0  0  0  0  0
   32.8628  -13.8583   37.5991 N   0  0  0  0  0  0  0  0  0  0  0  0
   33.6971  -15.6994   36.3088 N   0  0  0  0  0  0  0  0  0  0  0  0
   32.7310  -16.1870   36.3399 H   0  0  0  0  0  0  0  0  0  0  0  0
   35.9477  -16.4278   36.7202 C   0  0  0  0  0  0  0  0  0  0  0  0
   36.9976  -17.2204   36.3742 C   0  0  0  0  0  0  0  0  0  0  0  0
   36.9706  -18.0959   35.3213 C   0  0  0  0  0  0  0  0  0  0  0  0
   35.8137  -18.1624   34.5885 C   0  0  0  0  0  0  0  0  0  0  0  0
   34.7080  -17.3784   34.8927 C   0  0  0  0  0  0  0  0  0  0  0  0
   34.7599  -16.5102   35.9510 C   0  0  0  0  0  0  0  0  0  0  0  0
   38.0825  -18.9332   34.9595 N   0  0  0  0  0  0  0  0  0  0  0  0
   38.5917  -19.7851   36.0062 C   0  0  0  0  0  0  0  0  0  0  0  0
   39.6139  -20.7782   35.5895 C   0  0  0  0  0  0  0  0  0  0  0  0
   39.6517  -20.9957   34.1084 C   0  0  0  0  0  0  0  0  0  0  0  0
   39.8686  -19.6561   33.4353 C   0  0  0  0  0  0  0  0  0  0  0  0
   38.5970  -18.8703   33.6308 C   0  0  0  0  0  0  0  0  0  0  0  0
   40.6598  -21.9656   33.7555 N   0  0  0  0  0  0  0  0  0  0  0  0
   41.9922  -21.4642   33.9108 C   0  0  0  0  0  0  0  0  0  0  0  0
   40.4579  -23.2442   34.3961 C   0  0  0  0  0  0  0  0  0  0  0  0
   37.1145  -14.7479   37.9943 C   0  0  0  0  0  0  0  0  0  0  0  0
   35.9873  -15.5487   37.7848 O   0  0  0  0  0  0  0  0  0  0  0  0
   31.7903  -12.2073   39.0177 N   0  0  0  0  0  0  0  0  0  0  0  0
   32.1647  -12.1403   39.9863 H   0  0  0  0  0  0  0  0  0  0  0  0
   30.4480  -11.9149   38.7935 C   0  0  0  0  0  0  0  0  0  0  0  0
   29.9760  -11.3102   37.6283 C   0  0  0  0  0  0  0  0  0  0  0  0
   28.6209  -11.1431   37.3850 C   0  0  0  0  0  0  0  0  0  0  0  0
   27.6883  -11.5706   38.2879 C   0  0  0  0  0  0  0  0  0  0  0  0
   28.1508  -12.1629   39.4312 C   0  0  0  0  0  0  0  0  0  0  0  0
   29.5073  -12.3538   39.7265 C   0  0  0  0  0  0  0  0  0  0  0  0
   29.9036  -13.0038   41.2595 S   0  0  0  0  0  0  0  0  0  0  0  0
   31.4446  -12.9857   41.3884 O   0  0  0  0  0  0  0  0  0  0  0  0
   29.4662  -12.1677   42.4372 O   0  0  0  0  0  0  0  0  0  0  0  0
   29.4614  -14.6910   41.5188 C   0  0  0  0  0  0  0  0  0  0  0  0
   28.1499  -14.7892   42.3042 C   0  0  0  0  0  0  0  0  0  0  0  0
   29.3016  -15.5107   40.3064 C   0  0  0  0  0  0  0  0  0  0  0  0
 25 26  1  0  0  0
 26 10  1  0  0  0
 10 11  2  0  0  0
 11 12  1  0  0  0
 12 13  2  0  0  0
 13 14  1  0  0  0
 14 15  2  0  0  0
 15  8  1  0  0  0
  8  1  1  0  0  0
  1  2  2  0  0  0
  2  3  1  0  0  0
  3  4  2  0  0  0
  4  5  1  0  0  0
  4  6  1  0  0  0
  6 27  1  0  0  0
 27 29  1  0  0  0
 29 30  2  0  0  0
 30 31  1  0  0  0
 31 32  2  0  0  0
 32 33  1  0  0  0
 33 34  2  0  0  0
 34 35  1  0  0  0
 35 36  2  0  0  0
 35 37  2  0  0  0
 35 38  1  0  0  0
 38 39  1  0  0  0
 38 40  1  0  0  0
  6  7  2  0  0  0
 12 16  1  0  0  0
 16 17  1  0  0  0
 17 18  1  0  0  0
 18 19  1  0  0  0
 19 20  1  0  0  0
 20 21  1  0  0  0
 19 22  1  0  0  0
 22 23  1  0  0  0
 22 24  1  0  0  0
 15 10  1  0  0  0
  7  1  1  0  0  0
 21 16  1  0  0  0
 34 29  1  0  0  0
  8  9  1  0  0  0
 27 28  1  0  0  0
M  END
> <minimizedAffinity>
-8.32224

> <CNNscore>
0.4490357637

> <CNNaffinity>
7.1346144676

> <CNN_VS>
3.2036969662

> <CNNaffinity_variance>
0.0878363252

$$$$
[H]c1nc(N([H])c2c([H])c([H])c(N3C([H])([H])C([H])([H])C([H])(N(C([H])([H])[H])C([H])([H])[H])C([H])([H])C3([H])[H])c([H])c2OC([H])([H])[H])nc(N([H])c2c([H])c([H])c([H])c([H])c2S(=O)(=O)C([H])(C([H])([H])[H])C([H])([H])[H])c1Cl


 40 43  0  0  0  0  0  0  0  0999 V2000
   33.6712  -14.3323   36.5142 C   0  0  0  0  0  0  0  0  0  0  0  0
   34.4785  -13.3784   36.0629 N   0  0  0  0  0  0  0  0  0  0  0  0
   34.4577  -12.1213   36.5233 C   0  0  0  0  0  0  0  0  0  0  0  0
   33.5805  -11.7514   37.5062 C   0  0  0  0  0  0  0  0  0  0  0  0
   33.5165  -10.1269   38.1511 Cl  0  0  0  0  0  0  0  0  0  0  0  0
   32.6962  -12.7250   38.0252 C   0  0  0  0  0  0  0  0  0  0  0  0
   32.8123  -13.9216   37.4933 N   0  0  0  0  0  0  0  0  0  0  0  0
   33.6228  -15.6867   36.0868 N   0  0  0  0  0  0  0  0  0  0  0  0
   32.6395  -16.1345   36.0182 H   0  0  0  0  0  0  0  0  0  0  0  0
   34.4448  -17.5203   34.7726 C   0  0  0  0  0  0  0  0  0  0  0  0
   35.4756  -18.3395   34.4312 C   0  0  0  0  0  0  0  0  0  0  0  0
   36.7290  -18.2462   34.9757 C   0  0  0  0  0  0  0  0  0  0  0  0
   36.9358  -17.2679   35.9137 C   0  0  0  0  0  0  0  0  0  0  0  0
   35.9225  -16.4011   36.3036 C   0  0  0  0  0  0  0  0  0  0  0  0
   34.6772  -16.5147   35.7442 C   0  0  0  0  0  0  0  0  0  0  0  0
   37.8167  -19.1135   34.6111 N   0  0  0  0  0  0  0  0  0  0  0  0
   38.5844  -18.7056   33.4601 C   0  0  0  0  0  0  0  0  0  0  0  0
   39.8133  -19.4946   33.1918 C   0  0  0  0  0  0  0  0  0  0  0  0
   40.2561  -20.3096   34.3674 C   0  0  0  0  0  0  0  0  0  0  0  0
   39.1049  -21.1976   34.7925 C   0  0  0  0  0  0  0  0  0  0  0  0
   38.0603  -20.2865   35.3850 C   0  0  0  0  0  0  0  0  0  0  0  0
   41.4500  -21.0572   34.0559 N   0  0  0  0  0  0  0  0  0  0  0  0
   42.5168  -20.8113   34.9792 C   0  0  0  0  0  0  0  0  0  0  0  0
   41.1942  -22.4633   33.8480 C   0  0  0  0  0  0  0  0  0  0  0  0
   32.4277  -18.7854   34.4014 C   0  0  0  0  0  0  0  0  0  0  0  0
   33.1849  -17.6244   34.2160 O   0  0  0  0  0  0  0  0  0  0  0  0
   31.7573  -12.3492   39.0108 N   0  0  0  0  0  0  0  0  0  0  0  0
   32.1109  -12.3821   39.9888 H   0  0  0  0  0  0  0  0  0  0  0  0
   30.4335  -11.9824   38.7860 C   0  0  0  0  0  0  0  0  0  0  0  0
   30.0346  -11.1333   37.7534 C   0  0  0  0  0  0  0  0  0  0  0  0
   28.6974  -10.8845   37.4827 C   0  0  0  0  0  0  0  0  0  0  0  0
   27.7107  -11.4696   38.2256 C   0  0  0  0  0  0  0  0  0  0  0  0
   28.1015  -12.3016   39.2389 C   0  0  0  0  0  0  0  0  0  0  0  0
   29.4369  -12.5848   39.5555 C   0  0  0  0  0  0  0  0  0  0  0  0
   29.7394  -13.5539   40.9334 S   0  0  0  0  0  0  0  0  0  0  0  0
   30.1528  -14.9578   40.4334 O   0  0  0  0  0  0  0  0  0  0  0  0
   30.9328  -13.1345   41.7564 O   0  0  0  0  0  0  0  0  0  0  0  0
   28.3554  -13.8524   41.9844 C   0  0  0  0  0  0  0  0  0  0  0  0
   28.2000  -15.3517   42.2573 C   0  0  0  0  0  0  0  0  0  0  0  0
   28.3787  -13.1752   43.2914 C   0  0  0  0  0  0  0  0  0  0  0  0
 25 26  1  0  0  0
 26 10  1  0  0  0
 10 11  2  0  0  0
 11 12  1  0  0  0
 12 13  2  0  0  0
 13 14  1  0  0  0
 14 15  2  0  0  0
 15  8  1  0  0  0
  8  1  1  0  0  0
  1  2  2  0  0  0
  2  3  1  0  0  0
  3  4  2  0  0  0
  4  5  1  0  0  0
  4  6  1  0  0  0
  6 27  1  0  0  0
 27 29  1  0  0  0
 29 30  2  0  0  0
 30 31  1  0  0  0
 31 32  2  0  0  0
 32 33  1  0  0  0
 33 34  2  0  0  0
 34 35  1  0  0  0
 35 36  2  0  0  0
 35 37  2  0  0  0
 35 38  1  0  0  0
 38 39  1  0  0  0
 38 40  1  0  0  0
  6  7  2  0  0  0
 12 16  1  0  0  0
 16 17  1  0  0  0
 17 18  1  0  0  0
 18 19  1  0  0  0
 19 20  1  0  0  0
 20 21  1  0  0  0
 19 22  1  0  0  0
 22 23  1  0  0  0
 22 24  1  0  0  0
 15 10  1  0  0  0
  7  1  1  0  0  0
 21 16  1  0  0  0
 34 29  1  0  0  0
  8  9  1  0  0  0
 27 28  1  0  0  0
M  END
> <minimizedAffinity>
-8.41286

> <CNNscore>
0.3522448540

> <CNNaffinity>
6.9964203835

> <CNN_VS>
2.4644529819

> <CNNaffinity_variance>
0.0709225386

$$$$
[H]c1nc(N([H])c2c([H])c([H])c(N3C([H])([H])C([H])([H])C([H])(N(C([H])([H])[H])C([H])([H])[H])C([H])([H])C3([H])[H])c([H])c2OC([H])([H])[H])nc(N([H])c2c([H])c([H])c([H])c([H])c2S(=O)(=O)C([H])(C([H])([H])[H])C([H])([H])[H])c1Cl


 40 43  0  0  0  0  0  0  0  0999 V2000
   31.5507  -19.0134   35.1467 C   0  0  0  0  0  0  0  0  0  0  0  0
   30.3216  -19.0965   34.6488 N   0  0  0  0  0  0  0  0  0  0  0  0
   29.4410  -20.0336   35.0218 C   0  0  0  0  0  0  0  0  0  0  0  0
   29.7754  -20.9739   35.9579 C   0  0  0  0  0  0  0  0  0  0  0  0
   28.6623  -22.2140   36.4889 Cl  0  0  0  0  0  0  0  0  0  0  0  0
   31.0710  -20.9350   36.5229 C   0  0  0  0  0  0  0  0  0  0  0  0
   31.8436  -19.9696   36.0767 N   0  0  0  0  0  0  0  0  0  0  0  0
   32.5477  -18.0578   34.8118 N   0  0  0  0  0  0  0  0  0  0  0  0
   32.1954  -17.0727   34.5332 H   0  0  0  0  0  0  0  0  0  0  0  0
   34.7079  -17.3380   35.5736 C   0  0  0  0  0  0  0  0  0  0  0  0
   36.0592  -17.4932   35.5613 C   0  0  0  0  0  0  0  0  0  0  0  0
   36.7036  -18.4603   34.8364 C   0  0  0  0  0  0  0  0  0  0  0  0
   35.9272  -19.3079   34.0891 C   0  0  0  0  0  0  0  0  0  0  0  0
   34.5425  -19.1994   34.0610 C   0  0  0  0  0  0  0  0  0  0  0  0
   33.9215  -18.2236   34.7949 C   0  0  0  0  0  0  0  0  0  0  0  0
   38.1326  -18.6220   34.8271 N   0  0  0  0  0  0  0  0  0  0  0  0
   38.7612  -18.7122   36.1222 C   0  0  0  0  0  0  0  0  0  0  0  0
   40.2045  -19.0612   36.1158 C   0  0  0  0  0  0  0  0  0  0  0  0
   40.6620  -19.6433   34.8141 C   0  0  0  0  0  0  0  0  0  0  0  0
   40.3196  -18.6660   33.7085 C   0  0  0  0  0  0  0  0  0  0  0  0
   38.8178  -18.6800   33.5777 C   0  0  0  0  0  0  0  0  0  0  0  0
   42.0681  -19.9631   34.8585 N   0  0  0  0  0  0  0  0  0  0  0  0
   42.6768  -19.6213   36.1089 C   0  0  0  0  0  0  0  0  0  0  0  0
   42.3495  -21.3176   34.4435 C   0  0  0  0  0  0  0  0  0  0  0  0
   34.3764  -15.0102   36.1008 C   0  0  0  0  0  0  0  0  0  0  0  0
   34.0697  -16.3586   36.3092 O   0  0  0  0  0  0  0  0  0  0  0  0
   31.4452  -21.9230   37.4600 N   0  0  0  0  0  0  0  0  0  0  0  0
   31.1512  -21.7322   38.4397 H   0  0  0  0  0  0  0  0  0  0  0  0
   32.1783  -23.0750   37.1898 C   0  0  0  0  0  0  0  0  0  0  0  0
   31.8149  -24.0089   36.2192 C   0  0  0  0  0  0  0  0  0  0  0  0
   32.6298  -25.0821   35.8914 C   0  0  0  0  0  0  0  0  0  0  0  0
   33.8327  -25.2652   36.5139 C   0  0  0  0  0  0  0  0  0  0  0  0
   34.1890  -24.3501   37.4665 C   0  0  0  0  0  0  0  0  0  0  0  0
   33.4027  -23.2507   37.8364 C   0  0  0  0  0  0  0  0  0  0  0  0
   33.9540  -22.2789   39.1330 S   0  0  0  0  0  0  0  0  0  0  0  0
   35.5002  -22.2983   39.1044 O   0  0  0  0  0  0  0  0  0  0  0  0
   33.6421  -20.8081   39.0027 O   0  0  0  0  0  0  0  0  0  0  0  0
   33.5379  -22.8439   40.7506 C   0  0  0  0  0  0  0  0  0  0  0  0
   32.1196  -23.4223   40.7706 C   0  0  0  0  0  0  0  0  0  0  0  0
   34.4289  -23.8638   41.3279 C   0  0  0  0  0  0  0  0  0  0  0  0
 25 26  1  0  0  0
 26 10  1  0  0  0
 10 11  2  0  0  0
 11 12  1  0  0  0
 12 13  2  0  0  0
 13 14  1  0  0  0
 14 15  2  0  0  0
 15  8  1  0  0  0
  8  1  1  0  0  0
  1  2  2  0  0  0
  2  3  1  0  0  0
  3  4  2  0  0  0
  4  5  1  0  0  0
  4  6  1  0  0  0
  6 27  1  0  0  0
 27 29  1  0  0  0
 29 30  2  0  0  0
 30 31  1  0  0  0
 31 32  2  0  0  0
 32 33  1  0  0  0
 33 34  2  0  0  0
 34 35  1  0  0  0
 35 36  2  0  0  0
 35 37  2  0  0  0
 35 38  1  0  0  0
 38 39  1  0  0  0
 38 40  1  0  0  0
  6  7  2  0  0  0
 12 16  1  0  0  0
 16 17  1  0  0  0
 17 18  1  0  0  0
 18 19  1  0  0  0
 19 20  1  0  0  0
 20 21  1  0  0  0
 19 22  1  0  0  0
 22 23  1  0  0  0
 22 24  1  0  0  0
 15 10  1  0  0  0
  7  1  1  0  0  0
 21 16  1  0  0  0
 34 29  1  0  0  0
  8  9  1  0  0  0
 27 28  1  0  0  0
M  END
> <minimizedAffinity>
-5.91907

> <CNNscore>
0.3501401544

> <CNNaffinity>
6.4789185524

> <CNN_VS>
2.2685296535

> <CNNaffinity_variance>
0.5803527236

$$$$
[H]c1nc(N([H])c2c([H])c([H])c(N3C([H])([H])C([H])([H])C([H])(N(C([H])([H])[H])C([H])([H])[H])C([H])([H])C3([H])[H])c([H])c2OC([H])([H])[H])nc(N([H])c2c([H])c([H])c([H])c([H])c2S(=O)(=O)C([H])(C([H])([H])[H])C([H])([H])[H])c1Cl


 40 43  0  0  0  0  0  0  0  0999 V2000
   33.6671  -14.0736   36.6777 C   0  0  0  0  0  0  0  0  0  0  0  0
   34.5597  -13.1967   36.2308 N   0  0  0  0  0  0  0  0  0  0  0  0
   34.5246  -11.8937   36.5366 C   0  0  0  0  0  0  0  0  0  0  0  0
   33.5414  -11.3918   37.3452 C   0  0  0  0  0  0  0  0  0  0  0  0
   33.4528   -9.7012   37.7846 Cl  0  0  0  0  0  0  0  0  0  0  0  0
   32.5631  -12.2786   37.8508 C   0  0  0  0  0  0  0  0  0  0  0  0
   32.7040  -13.5320   37.4803 N   0  0  0  0  0  0  0  0  0  0  0  0
   33.6259  -15.4679   36.4064 N   0  0  0  0  0  0  0  0  0  0  0  0
   32.6573  -15.9449   36.4860 H   0  0  0  0  0  0  0  0  0  0  0  0
   35.8597  -16.2444   36.8210 C   0  0  0  0  0  0  0  0  0  0  0  0
   36.8924  -17.0603   36.4775 C   0  0  0  0  0  0  0  0  0  0  0  0
   36.8471  -17.9371   35.4261 C   0  0  0  0  0  0  0  0  0  0  0  0
   35.6897  -17.9798   34.6925 C   0  0  0  0  0  0  0  0  0  0  0  0
   34.6010  -17.1712   34.9943 C   0  0  0  0  0  0  0  0  0  0  0  0
   34.6710  -16.3023   36.0510 C   0  0  0  0  0  0  0  0  0  0  0  0
   37.9408  -18.7991   35.0669 N   0  0  0  0  0  0  0  0  0  0  0  0
   38.8543  -19.1295   36.1332 C   0  0  0  0  0  0  0  0  0  0  0  0
   39.8742  -20.1600   35.8127 C   0  0  0  0  0  0  0  0  0  0  0  0
   39.5387  -20.9580   34.5907 C   0  0  0  0  0  0  0  0  0  0  0  0
   39.3332  -19.9987   33.4366 C   0  0  0  0  0  0  0  0  0  0  0  0
   38.0514  -19.2582   33.7211 C   0  0  0  0  0  0  0  0  0  0  0  0
   40.5588  -21.9420   34.3217 N   0  0  0  0  0  0  0  0  0  0  0  0
   40.0258  -23.2572   34.1292 C   0  0  0  0  0  0  0  0  0  0  0  0
   41.4649  -21.5393   33.2717 C   0  0  0  0  0  0  0  0  0  0  0  0
   37.0460  -14.5594   38.0702 C   0  0  0  0  0  0  0  0  0  0  0  0
   35.9177  -15.3643   37.8839 O   0  0  0  0  0  0  0  0  0  0  0  0
   31.5185  -11.7693   38.6531 N   0  0  0  0  0  0  0  0  0  0  0  0
   31.4446  -10.7315   38.6703 H   0  0  0  0  0  0  0  0  0  0  0  0
   30.6322  -12.5197   39.4205 C   0  0  0  0  0  0  0  0  0  0  0  0
   31.0271  -13.5814   40.2348 C   0  0  0  0  0  0  0  0  0  0  0  0
   30.1376  -14.2298   41.0785 C   0  0  0  0  0  0  0  0  0  0  0  0
   28.8272  -13.8471   41.1441 C   0  0  0  0  0  0  0  0  0  0  0  0
   28.4394  -12.8065   40.3449 C   0  0  0  0  0  0  0  0  0  0  0  0
   29.2961  -12.1197   39.4743 C   0  0  0  0  0  0  0  0  0  0  0  0
   28.6087  -10.9229   38.4620 S   0  0  0  0  0  0  0  0  0  0  0  0
   29.3193   -9.5852   38.7740 O   0  0  0  0  0  0  0  0  0  0  0  0
   28.8813  -11.1031   36.9886 O   0  0  0  0  0  0  0  0  0  0  0  0
   26.8984  -10.5825   38.7229 C   0  0  0  0  0  0  0  0  0  0  0  0
   26.0658  -11.8591   38.5691 C   0  0  0  0  0  0  0  0  0  0  0  0
   26.5484   -9.9925   40.0255 C   0  0  0  0  0  0  0  0  0  0  0  0
 25 26  1  0  0  0
 26 10  1  0  0  0
 10 11  2  0  0  0
 11 12  1  0  0  0
 12 13  2  0  0  0
 13 14  1  0  0  0
 14 15  2  0  0  0
 15  8  1  0  0  0
  8  1  1  0  0  0
  1  2  2  0  0  0
  2  3  1  0  0  0
  3  4  2  0  0  0
  4  5  1  0  0  0
  4  6  1  0  0  0
  6 27  1  0  0  0
 27 29  1  0  0  0
 29 30  2  0  0  0
 30 31  1  0  0  0
 31 32  2  0  0  0
 32 33  1  0  0  0
 33 34  2  0  0  0
 34 35  1  0  0  0
 35 36  2  0  0  0
 35 37  2  0  0  0
 35 38  1  0  0  0
 38 39  1  0  0  0
 38 40  1  0  0  0
  6  7  2  0  0  0
 12 16  1  0  0  0
 16 17  1  0  0  0
 17 18  1  0  0  0
 18 19  1  0  0  0
 19 20  1  0  0  0
 20 21  1  0  0  0
 19 22  1  0  0  0
 22 23  1  0  0  0
 22 24  1  0  0  0
 15 10  1  0  0  0
  7  1  1  0  0  0
 21 16  1  0  0  0
 34 29  1  0  0  0
  8  9  1  0  0  0
 27 28  1  0  0  0
M  END
> <minimizedAffinity>
-8.05043

> <CNNscore>
0.2641873062

> <CNNaffinity>
6.8825211525

> <CNN_VS>
1.8182747364

> <CNNaffinity_variance>
0.0997721776

$$$$
[H]c1nc(N([H])c2c([H])c([H])c(N3C([H])([H])C([H])([H])C([H])(N(C([H])([H])[H])C([H])([H])[H])C([H])([H])C3([H])[H])c([H])c2OC([H])([H])[H])nc(N([H])c2c([H])c([H])c([H])c([H])c2S(=O)(=O)C([H])(C([H])([H])[H])C([H])([H])[H])c1Cl


 40 43  0  0  0  0  0  0  0  0999 V2000
   33.5716  -14.0611   36.6829 C   0  0  0  0  0  0  0  0  0  0  0  0
   34.4664  -13.1366   36.3513 N   0  0  0  0  0  0  0  0  0  0  0  0
   34.3818  -11.8596   36.7445 C   0  0  0  0  0  0  0  0  0  0  0  0
   33.3419  -11.4366   37.5269 C   0  0  0  0  0  0  0  0  0  0  0  0
   33.1866   -9.7836   38.0769 Cl  0  0  0  0  0  0  0  0  0  0  0  0
   32.3584  -12.3770   37.9112 C   0  0  0  0  0  0  0  0  0  0  0  0
   32.5512  -13.5978   37.4633 N   0  0  0  0  0  0  0  0  0  0  0  0
   33.5804  -15.4333   36.3133 N   0  0  0  0  0  0  0  0  0  0  0  0
   32.6134  -15.9057   36.1952 H   0  0  0  0  0  0  0  0  0  0  0  0
   34.5482  -17.2662   35.1015 C   0  0  0  0  0  0  0  0  0  0  0  0
   35.6167  -18.0755   34.8701 C   0  0  0  0  0  0  0  0  0  0  0  0
   36.8092  -17.9634   35.5344 C   0  0  0  0  0  0  0  0  0  0  0  0
   36.9117  -16.9761   36.4802 C   0  0  0  0  0  0  0  0  0  0  0  0
   35.8554  -16.1187   36.7613 C   0  0  0  0  0  0  0  0  0  0  0  0
   34.6726  -16.2511   36.0830 C   0  0  0  0  0  0  0  0  0  0  0  0
   37.9372  -18.8203   35.2859 N   0  0  0  0  0  0  0  0  0  0  0  0
   38.0977  -19.2650   33.9231 C   0  0  0  0  0  0  0  0  0  0  0  0
   39.3562  -19.9953   33.6269 C   0  0  0  0  0  0  0  0  0  0  0  0
   40.4080  -19.8017   34.6751 C   0  0  0  0  0  0  0  0  0  0  0  0
   39.8279  -20.2102   36.0135 C   0  0  0  0  0  0  0  0  0  0  0  0
   38.7990  -19.1671   36.3680 C   0  0  0  0  0  0  0  0  0  0  0  0
   41.6074  -20.5311   34.3424 N   0  0  0  0  0  0  0  0  0  0  0  0
   42.2337  -21.1227   35.4863 C   0  0  0  0  0  0  0  0  0  0  0  0
   41.4147  -21.4640   33.2569 C   0  0  0  0  0  0  0  0  0  0  0  0
   32.7677  -18.6483   34.2492 C   0  0  0  0  0  0  0  0  0  0  0  0
   33.3506  -17.3893   34.4246 O   0  0  0  0  0  0  0  0  0  0  0  0
   31.2574  -11.9474   38.6843 N   0  0  0  0  0  0  0  0  0  0  0  0
   31.1646  -10.9155   38.7801 H   0  0  0  0  0  0  0  0  0  0  0  0
   30.3384  -12.7686   39.3314 C   0  0  0  0  0  0  0  0  0  0  0  0
   30.6851  -13.9616   39.9660 C   0  0  0  0  0  0  0  0  0  0  0  0
   29.7677  -14.6939   40.7044 C   0  0  0  0  0  0  0  0  0  0  0  0
   28.4761  -14.2680   40.8393 C   0  0  0  0  0  0  0  0  0  0  0  0
   28.1354  -13.0985   40.2163 C   0  0  0  0  0  0  0  0  0  0  0  0
   29.0219  -12.3225   39.4576 C   0  0  0  0  0  0  0  0  0  0  0  0
   28.3890  -10.9521   38.6507 S   0  0  0  0  0  0  0  0  0  0  0  0
   29.0873  -10.8588   37.2741 O   0  0  0  0  0  0  0  0  0  0  0  0
   26.9314  -11.0535   38.2728 O   0  0  0  0  0  0  0  0  0  0  0  0
   28.7090   -9.3940   39.4117 C   0  0  0  0  0  0  0  0  0  0  0  0
   29.7073   -8.5833   38.5794 C   0  0  0  0  0  0  0  0  0  0  0  0
   27.5365   -8.5332   39.6394 C   0  0  0  0  0  0  0  0  0  0  0  0
 25 26  1  0  0  0
 26 10  1  0  0  0
 10 11  2  0  0  0
 11 12  1  0  0  0
 12 13  2  0  0  0
 13 14  1  0  0  0
 14 15  2  0  0  0
 15  8  1  0  0  0
  8  1  1  0  0  0
  1  2  2  0  0  0
  2  3  1  0  0  0
  3  4  2  0  0  0
  4  5  1  0  0  0
  4  6  1  0  0  0
  6 27  1  0  0  0
 27 29  1  0  0  0
 29 30  2  0  0  0
 30 31  1  0  0  0
 31 32  2  0  0  0
 32 33  1  0  0  0
 33 34  2  0  0  0
 34 35  1  0  0  0
 35 36  2  0  0  0
 35 37  2  0  0  0
 35 38  1  0  0  0
 38 39  1  0  0  0
 38 40  1  0  0  0
  6  7  2  0  0  0
 12 16  1  0  0  0
 16 17  1  0  0  0
 17 18  1  0  0  0
 18 19  1  0  0  0
 19 20  1  0  0  0
 20 21  1  0  0  0
 19 22  1  0  0  0
 22 23  1  0  0  0
 22 24  1  0  0  0
 15 10  1  0  0  0
  7  1  1  0  0  0
 21 16  1  0  0  0
 34 29  1  0  0  0
  8  9  1  0  0  0
 27 28  1  0  0  0
M  END
> <minimizedAffinity>
-8.14058

> <CNNscore>
0.2577012777

> <CNNaffinity>
6.8747711182

> <CNN_VS>
1.7716373205

> <CNNaffinity_variance>
0.0427490063

$$$$
[H]c1nc(N([H])c2c([H])c([H])c(N3C([H])([H])C([H])([H])C([H])(N(C([H])([H])[H])C([H])([H])[H])C([H])([H])C3([H])[H])c([H])c2OC([H])([H])[H])nc(N([H])c2c([H])c([H])c([H])c([H])c2S(=O)(=O)C([H])(C([H])([H])[H])C([H])([H])[H])c1Cl


 40 43  0  0  0  0  0  0  0  0999 V2000
   32.3596  -18.7514   34.9513 C   0  0  0  0  0  0  0  0  0  0  0  0
   31.0786  -18.6466   34.6141 N   0  0  0  0  0  0  0  0  0  0  0  0
   30.1523  -19.5482   34.9629 C   0  0  0  0  0  0  0  0  0  0  0  0
   30.4914  -20.6484   35.7024 C   0  0  0  0  0  0  0  0  0  0  0  0
   29.3214  -21.8521   36.1937 Cl  0  0  0  0  0  0  0  0  0  0  0  0
   31.8410  -20.8130   36.0904 C   0  0  0  0  0  0  0  0  0  0  0  0
   32.6552  -19.8625   35.6880 N   0  0  0  0  0  0  0  0  0  0  0  0
   33.4073  -17.8478   34.6270 N   0  0  0  0  0  0  0  0  0  0  0  0
   33.1080  -16.8493   34.3345 H   0  0  0  0  0  0  0  0  0  0  0  0
   35.5793  -17.2635   35.4672 C   0  0  0  0  0  0  0  0  0  0  0  0
   36.9215  -17.4838   35.4809 C   0  0  0  0  0  0  0  0  0  0  0  0
   37.5372  -18.4532   34.7345 C   0  0  0  0  0  0  0  0  0  0  0  0
   36.7405  -19.2332   33.9366 C   0  0  0  0  0  0  0  0  0  0  0  0
   35.3637  -19.0563   33.8799 C   0  0  0  0  0  0  0  0  0  0  0  0
   34.7715  -18.0797   34.6362 C   0  0  0  0  0  0  0  0  0  0  0  0
   38.9566  -18.6840   34.7528 N   0  0  0  0  0  0  0  0  0  0  0  0
   39.5956  -18.7602   33.4618 C   0  0  0  0  0  0  0  0  0  0  0  0
   41.0793  -18.8143   33.4786 C   0  0  0  0  0  0  0  0  0  0  0  0
   41.6677  -18.3845   34.7869 C   0  0  0  0  0  0  0  0  0  0  0  0
   41.0660  -19.2386   35.8837 C   0  0  0  0  0  0  0  0  0  0  0  0
   39.6230  -18.8199   36.0064 C   0  0  0  0  0  0  0  0  0  0  0  0
   43.1082  -18.4564   34.7525 N   0  0  0  0  0  0  0  0  0  0  0  0
   43.7336  -17.1859   34.9661 C   0  0  0  0  0  0  0  0  0  0  0  0
   43.6391  -19.4982   35.6002 C   0  0  0  0  0  0  0  0  0  0  0  0
   35.7445  -15.3672   36.9449 C   0  0  0  0  0  0  0  0  0  0  0  0
   34.9701  -16.2824   36.2250 O   0  0  0  0  0  0  0  0  0  0  0  0
   32.2144  -21.9638   36.8187 N   0  0  0  0  0  0  0  0  0  0  0  0
   31.4341  -22.4417   37.3142 H   0  0  0  0  0  0  0  0  0  0  0  0
   33.5040  -22.4718   36.9469 C   0  0  0  0  0  0  0  0  0  0  0  0
   34.6071  -21.6926   37.2970 C   0  0  0  0  0  0  0  0  0  0  0  0
   35.8543  -22.2505   37.5344 C   0  0  0  0  0  0  0  0  0  0  0  0
   36.0500  -23.5993   37.4337 C   0  0  0  0  0  0  0  0  0  0  0  0
   34.9688  -24.3637   37.0894 C   0  0  0  0  0  0  0  0  0  0  0  0
   33.6894  -23.8507   36.8370 C   0  0  0  0  0  0  0  0  0  0  0  0
   32.4860  -24.9434   36.3007 S   0  0  0  0  0  0  0  0  0  0  0  0
   31.6262  -24.2080   35.2463 O   0  0  0  0  0  0  0  0  0  0  0  0
   33.0047  -26.1323   35.5294 O   0  0  0  0  0  0  0  0  0  0  0  0
   31.3274  -25.4728   37.5199 C   0  0  0  0  0  0  0  0  0  0  0  0
   31.6983  -24.9100   38.8955 C   0  0  0  0  0  0  0  0  0  0  0  0
   29.9206  -25.1167   37.2721 C   0  0  0  0  0  0  0  0  0  0  0  0
 25 26  1  0  0  0
 26 10  1  0  0  0
 10 11  2  0  0  0
 11 12  1  0  0  0
 12 13  2  0  0  0
 13 14  1  0  0  0
 14 15  2  0  0  0
 15  8  1  0  0  0
  8  1  1  0  0  0
  1  2  2  0  0  0
  2  3  1  0  0  0
  3  4  2  0  0  0
  4  5  1  0  0  0
  4  6  1  0  0  0
  6 27  1  0  0  0
 27 29  1  0  0  0
 29 30  2  0  0  0
 30 31  1  0  0  0
 31 32  2  0  0  0
 32 33  1  0  0  0
 33 34  2  0  0  0
 34 35  1  0  0  0
 35 36  2  0  0  0
 35 37  2  0  0  0
 35 38  1  0  0  0
 38 39  1  0  0  0
 38 40  1  0  0  0
  6  7  2  0  0  0
 12 16  1  0  0  0
 16 17  1  0  0  0
 17 18  1  0  0  0
 18 19  1  0  0  0
 19 20  1  0  0  0
 20 21  1  0  0  0
 19 22  1  0  0  0
 22 23  1  0  0  0
 22 24  1  0  0  0
 15 10  1  0  0  0
  7  1  1  0  0  0
 21 16  1  0  0  0
 34 29  1  0  0  0
  8  9  1  0  0  0
 27 28  1  0  0  0
M  END
> <minimizedAffinity>
-5.91434

> <CNNscore>
0.2314457148

> <CNNaffinity>
6.3864874840

> <CNN_VS>
1.4781252146

> <CNNaffinity_variance>
0.6182456017

$$$$
[H]c1nc(N([H])c2c([H])c([H])c(N3C([H])([H])C([H])([H])C([H])(N(C([H])([H])[H])C([H])([H])[H])C([H])([H])C3([H])[H])c([H])c2OC([H])([H])[H])nc(N([H])c2c([H])c([H])c([H])c([H])c2S(=O)(=O)C([H])(C([H])([H])[H])C([H])([H])[H])c1Cl


 40 43  0  0  0  0  0  0  0  0999 V2000
   34.0451  -14.1682   36.2652 C   0  0  0  0  0  0  0  0  0  0  0  0
   34.7631  -13.1000   35.9352 N   0  0  0  0  0  0  0  0  0  0  0  0
   34.6003  -11.9011   36.5085 C   0  0  0  0  0  0  0  0  0  0  0  0
   33.6618  -11.7159   37.4870 C   0  0  0  0  0  0  0  0  0  0  0  0
   33.4131  -10.1750   38.2761 Cl  0  0  0  0  0  0  0  0  0  0  0  0
   32.8674  -12.8177   37.8796 C   0  0  0  0  0  0  0  0  0  0  0  0
   33.1209  -13.9405   37.2444 N   0  0  0  0  0  0  0  0  0  0  0  0
   34.1482  -15.4736   35.7132 N   0  0  0  0  0  0  0  0  0  0  0  0
   33.5576  -15.6690   34.8270 H   0  0  0  0  0  0  0  0  0  0  0  0
   36.2385  -16.2712   36.5845 C   0  0  0  0  0  0  0  0  0  0  0  0
   36.9956  -17.3106   37.0279 C   0  0  0  0  0  0  0  0  0  0  0  0
   36.5450  -18.6025   37.0911 C   0  0  0  0  0  0  0  0  0  0  0  0
   35.2587  -18.8406   36.6808 C   0  0  0  0  0  0  0  0  0  0  0  0
   34.4370  -17.8205   36.2179 C   0  0  0  0  0  0  0  0  0  0  0  0
   34.9110  -16.5364   36.1643 C   0  0  0  0  0  0  0  0  0  0  0  0
   37.3483  -19.6987   37.5619 N   0  0  0  0  0  0  0  0  0  0  0  0
   38.6940  -19.7561   37.0457 C   0  0  0  0  0  0  0  0  0  0  0  0
   39.5798  -20.7736   37.6658 C   0  0  0  0  0  0  0  0  0  0  0  0
   39.0591  -21.2874   38.9725 C   0  0  0  0  0  0  0  0  0  0  0  0
   37.6611  -21.8263   38.7497 C   0  0  0  0  0  0  0  0  0  0  0  0
   36.7820  -20.6319   38.4798 C   0  0  0  0  0  0  0  0  0  0  0  0
   39.9527  -22.2721   39.5320 N   0  0  0  0  0  0  0  0  0  0  0  0
   39.8610  -23.5422   38.8768 C   0  0  0  0  0  0  0  0  0  0  0  0
   41.3103  -21.7944   39.6531 C   0  0  0  0  0  0  0  0  0  0  0  0
   37.4518  -14.4444   37.5832 C   0  0  0  0  0  0  0  0  0  0  0  0
   36.7045  -14.9723   36.5256 O   0  0  0  0  0  0  0  0  0  0  0  0
   31.8669  -12.6331   38.8589 N   0  0  0  0  0  0  0  0  0  0  0  0
   32.1454  -12.8975   39.8260 H   0  0  0  0  0  0  0  0  0  0  0  0
   30.5730  -12.1718   38.6339 C   0  0  0  0  0  0  0  0  0  0  0  0
   30.2211  -11.3632   37.5528 C   0  0  0  0  0  0  0  0  0  0  0  0
   28.9030  -11.0212   37.2903 C   0  0  0  0  0  0  0  0  0  0  0  0
   27.8894  -11.4698   38.0897 C   0  0  0  0  0  0  0  0  0  0  0  0
   28.2342  -12.2620   39.1506 C   0  0  0  0  0  0  0  0  0  0  0  0
   29.5488  -12.6350   39.4612 C   0  0  0  0  0  0  0  0  0  0  0  0
   29.8030  -13.5317   40.8968 S   0  0  0  0  0  0  0  0  0  0  0  0
   30.0934  -14.9942   40.4867 O   0  0  0  0  0  0  0  0  0  0  0  0
   31.0431  -13.1556   41.6703 O   0  0  0  0  0  0  0  0  0  0  0  0
   28.4224  -13.6476   41.9875 C   0  0  0  0  0  0  0  0  0  0  0  0
   28.4682  -14.9599   42.7764 C   0  0  0  0  0  0  0  0  0  0  0  0
   28.2803  -12.5586   42.9679 C   0  0  0  0  0  0  0  0  0  0  0  0
 25 26  1  0  0  0
 26 10  1  0  0  0
 10 11  2  0  0  0
 11 12  1  0  0  0
 12 13  2  0  0  0
 13 14  1  0  0  0
 14 15  2  0  0  0
 15  8  1  0  0  0
  8  1  1  0  0  0
  1  2  2  0  0  0
  2  3  1  0  0  0
  3  4  2  0  0  0
  4  5  1  0  0  0
  4  6  1  0  0  0
  6 27  1  0  0  0
 27 29  1  0  0  0
 29 30  2  0  0  0
 30 31  1  0  0  0
 31 32  2  0  0  0
 32 33  1  0  0  0
 33 34  2  0  0  0
 34 35  1  0  0  0
 35 36  2  0  0  0
 35 37  2  0  0  0
 35 38  1  0  0  0
 38 39  1  0  0  0
 38 40  1  0  0  0
  6  7  2  0  0  0
 12 16  1  0  0  0
 16 17  1  0  0  0
 17 18  1  0  0  0
 18 19  1  0  0  0
 19 20  1  0  0  0
 20 21  1  0  0  0
 19 22  1  0  0  0
 22 23  1  0  0  0
 22 24  1  0  0  0
 15 10  1  0  0  0
  7  1  1  0  0  0
 21 16  1  0  0  0
 34 29  1  0  0  0
  8  9  1  0  0  0
 27 28  1  0  0  0
M  END
> <minimizedAffinity>
-7.61972

> <CNNscore>
0.1788899302

> <CNNaffinity>
6.5291051865

> <CNN_VS>
1.1679911613

> <CNNaffinity_variance>
0.4293874800

$$$$
[H]c1nc(N([H])c2c([H])c([H])c(N3C([H])([H])C([H])([H])C([H])(N(C([H])([H])[H])C([H])([H])[H])C([H])([H])C3([H])[H])c([H])c2OC([H])([H])[H])nc(N([H])c2c([H])c([H])c([H])c([H])c2S(=O)(=O)C([H])(C([H])([H])[H])C([H])([H])[H])c1Cl


 40 43  0  0  0  0  0  0  0  0999 V2000
   34.8304  -14.3152   36.3043 C   0  0  0  0  0  0  0  0  0  0  0  0
   35.4347  -13.1423   36.1478 N   0  0  0  0  0  0  0  0  0  0  0  0
   35.0038  -12.0126   36.7229 C   0  0  0  0  0  0  0  0  0  0  0  0
   33.8913  -12.0143   37.5196 C   0  0  0  0  0  0  0  0  0  0  0  0
   33.2897  -10.5708   38.3029 Cl  0  0  0  0  0  0  0  0  0  0  0  0
   33.2063  -13.2345   37.7224 C   0  0  0  0  0  0  0  0  0  0  0  0
   33.7255  -14.2729   37.1057 N   0  0  0  0  0  0  0  0  0  0  0  0
   35.2147  -15.5594   35.7354 N   0  0  0  0  0  0  0  0  0  0  0  0
   36.1602  -15.5757   35.2083 H   0  0  0  0  0  0  0  0  0  0  0  0
   35.1075  -17.8344   36.4955 C   0  0  0  0  0  0  0  0  0  0  0  0
   34.4438  -19.0213   36.5307 C   0  0  0  0  0  0  0  0  0  0  0  0
   33.2475  -19.2387   35.9002 C   0  0  0  0  0  0  0  0  0  0  0  0
   32.7059  -18.1912   35.2008 C   0  0  0  0  0  0  0  0  0  0  0  0
   33.3362  -16.9553   35.1280 C   0  0  0  0  0  0  0  0  0  0  0  0
   34.5323  -16.7628   35.7674 C   0  0  0  0  0  0  0  0  0  0  0  0
   32.5482  -20.4948   35.9409 N   0  0  0  0  0  0  0  0  0  0  0  0
   31.1191  -20.4222   35.7594 C   0  0  0  0  0  0  0  0  0  0  0  0
   30.4200  -21.7245   35.6180 C   0  0  0  0  0  0  0  0  0  0  0  0
   31.3457  -22.8555   35.2917 C   0  0  0  0  0  0  0  0  0  0  0  0
   32.4218  -22.9129   36.3563 C   0  0  0  0  0  0  0  0  0  0  0  0
   33.2876  -21.6958   36.1528 C   0  0  0  0  0  0  0  0  0  0  0  0
   30.6197  -24.0960   35.1667 N   0  0  0  0  0  0  0  0  0  0  0  0
   29.2318  -23.9633   35.4937 C   0  0  0  0  0  0  0  0  0  0  0  0
   30.8425  -24.7520   33.8994 C   0  0  0  0  0  0  0  0  0  0  0  0
   37.4680  -18.2786   36.6893 C   0  0  0  0  0  0  0  0  0  0  0  0
   36.3137  -17.6276   37.1358 O   0  0  0  0  0  0  0  0  0  0  0  0
   32.0332  -13.2451   38.5086 N   0  0  0  0  0  0  0  0  0  0  0  0
   32.0156  -13.9640   39.2607 H   0  0  0  0  0  0  0  0  0  0  0  0
   30.9251  -12.4195   38.3410 C   0  0  0  0  0  0  0  0  0  0  0  0
   30.7311  -11.6090   37.2222 C   0  0  0  0  0  0  0  0  0  0  0  0
   29.5601  -10.8913   37.0297 C   0  0  0  0  0  0  0  0  0  0  0  0
   28.5419  -10.9535   37.9392 C   0  0  0  0  0  0  0  0  0  0  0  0
   28.7322  -11.7475   39.0370 C   0  0  0  0  0  0  0  0  0  0  0  0
   29.8952  -12.4905   39.2802 C   0  0  0  0  0  0  0  0  0  0  0  0
   30.0047  -13.3325   40.7663 S   0  0  0  0  0  0  0  0  0  0  0  0
   30.0576  -14.8437   40.4422 O   0  0  0  0  0  0  0  0  0  0  0  0
   31.2898  -13.1152   41.5272 O   0  0  0  0  0  0  0  0  0  0  0  0
   28.6246  -13.1643   41.8508 C   0  0  0  0  0  0  0  0  0  0  0  0
   27.6167  -14.2943   41.6187 C   0  0  0  0  0  0  0  0  0  0  0  0
   28.9323  -13.1484   43.2904 C   0  0  0  0  0  0  0  0  0  0  0  0
 25 26  1  0  0  0
 26 10  1  0  0  0
 10 11  2  0  0  0
 11 12  1  0  0  0
 12 13  2  0  0  0
 13 14  1  0  0  0
 14 15  2  0  0  0
 15  8  1  0  0  0
  8  1  1  0  0  0
  1  2  2  0  0  0
  2  3  1  0  0  0
  3  4  2  0  0  0
  4  5  1  0  0  0
  4  6  1  0  0  0
  6 27  1  0  0  0
 27 29  1  0  0  0
 29 30  2  0  0  0
 30 31  1  0  0  0
 31 32  2  0  0  0
 32 33  1  0  0  0
 33 34  2  0  0  0
 34 35  1  0  0  0
 35 36  2  0  0  0
 35 37  2  0  0  0
 35 38  1  0  0  0
 38 39  1  0  0  0
 38 40  1  0  0  0
  6  7  2  0  0  0
 12 16  1  0  0  0
 16 17  1  0  0  0
 17 18  1  0  0  0
 18 19  1  0  0  0
 19 20  1  0  0  0
 20 21  1  0  0  0
 19 22  1  0  0  0
 22 23  1  0  0  0
 22 24  1  0  0  0
 15 10  1  0  0  0
  7  1  1  0  0  0
 21 16  1  0  0  0
 34 29  1  0  0  0
  8  9  1  0  0  0
 27 28  1  0  0  0
M  END
> <minimizedAffinity>
-8.02932

> <CNNscore>
0.1442857981

> <CNNaffinity>
6.4997329712

> <CNN_VS>
0.9378191829

> <CNNaffinity_variance>
0.5011317134

$$$$
[H]c1nc(N([H])c2c([H])c([H])c(N3C([H])([H])C([H])([H])C([H])(N([H])[H])C([H])([H])C3([H])[H])c([H])c2OC([H])([H])[H])nc(N([H])c2c([H])c([H])c([H])c([H])c2S(=O)(=O)C([H])(C([H])([H])[H])C([H])([H])[H])c1Cl


 40 43  0  0  0  0  0  0  0  0999 V2000
   33.7291  -16.7352   35.2990 C   0  0  0  0  0  0  0  0  0  0  0  0
   33.7907  -15.4186   35.4907 N   0  0  0  0  0  0  0  0  0  0  0  0
   34.6813  -14.8293   36.2890 C   0  0  0  0  0  0  0  0  0  0  0  0
   35.6031  -15.5707   36.9706 C   0  0  0  0  0  0  0  0  0  0  0  0
   36.8006  -14.8389   38.0276 Cl  0  0  0  0  0  0  0  0  0  0  0  0
   35.5757  -16.9742   36.7982 C   0  0  0  0  0  0  0  0  0  0  0  0
   34.6505  -17.4562   35.9826 N   0  0  0  0  0  0  0  0  0  0  0  0
   32.8326  -17.4226   34.4851 N   0  0  0  0  0  0  0  0  0  0  0  0
   32.5102  -16.9096   33.5930 H   0  0  0  0  0  0  0  0  0  0  0  0
   32.9241  -19.8120   34.1024 C   0  0  0  0  0  0  0  0  0  0  0  0
   32.4573  -21.1037   34.2178 C   0  0  0  0  0  0  0  0  0  0  0  0
   31.2965  -21.3747   34.9012 C   0  0  0  0  0  0  0  0  0  0  0  0
   30.6419  -20.3037   35.4517 C   0  0  0  0  0  0  0  0  0  0  0  0
   31.1145  -18.9892   35.3359 C   0  0  0  0  0  0  0  0  0  0  0  0
   32.2760  -18.7067   34.6535 C   0  0  0  0  0  0  0  0  0  0  0  0
   30.7989  -22.7027   35.0156 N   0  0  0  0  0  0  0  0  0  0  0  0
   29.4791  -22.9659   35.6119 C   0  0  0  0  0  0  0  0  0  0  0  0
   29.4967  -24.3108   36.3038 C   0  0  0  0  0  0  0  0  0  0  0  0
   30.8536  -24.6879   36.8475 C   0  0  0  0  0  0  0  0  0  0  0  0
   30.7436  -26.0247   37.3984 N   0  0  0  0  0  0  0  0  0  0  0  0
   31.9082  -24.7244   35.7631 C   0  0  0  0  0  0  0  0  0  0  0  0
   31.4974  -23.8858   34.5706 C   0  0  0  0  0  0  0  0  0  0  0  0
   30.2442  -26.6739   36.7360 H   0  0  0  0  0  0  0  0  0  0  0  0
   30.3689  -26.0448   38.3559 H   0  0  0  0  0  0  0  0  0  0  0  0
   35.3835  -19.6754   33.9814 C   0  0  0  0  0  0  0  0  0  0  0  0
   34.1173  -19.5560   33.3972 O   0  0  0  0  0  0  0  0  0  0  0  0
   36.5027  -17.7364   37.5364 N   0  0  0  0  0  0  0  0  0  0  0  0
   36.7827  -17.3966   38.5148 H   0  0  0  0  0  0  0  0  0  0  0  0
   37.1456  -18.9043   37.1049 C   0  0  0  0  0  0  0  0  0  0  0  0
   38.3216  -18.8434   36.3808 C   0  0  0  0  0  0  0  0  0  0  0  0
   39.0161  -19.9987   36.0641 C   0  0  0  0  0  0  0  0  0  0  0  0
   38.5798  -21.2403   36.4472 C   0  0  0  0  0  0  0  0  0  0  0  0
   37.4166  -21.2888   37.1612 C   0  0  0  0  0  0  0  0  0  0  0  0
   36.6795  -20.1503   37.5030 C   0  0  0  0  0  0  0  0  0  0  0  0
   35.1677  -20.4320   38.3096 S   0  0  0  0  0  0  0  0  0  0  0  0
   35.1040  -19.5249   39.5499 O   0  0  0  0  0  0  0  0  0  0  0  0
   33.9808  -19.9630   37.4889 O   0  0  0  0  0  0  0  0  0  0  0  0
   34.9515  -22.0615   38.9066 C   0  0  0  0  0  0  0  0  0  0  0  0
   35.4434  -22.1677   40.3630 C   0  0  0  0  0  0  0  0  0  0  0  0
   33.5565  -22.5536   38.8691 C   0  0  0  0  0  0  0  0  0  0  0  0
 25 26  1  0  0  0
 26 10  1  0  0  0
 10 11  2  0  0  0
 11 12  1  0  0  0
 12 13  2  0  0  0
 13 14  1  0  0  0
 14 15  2  0  0  0
 15  8  1  0  0  0
  8  1  1  0  0  0
  1  2  2  0  0  0
  2  3  1  0  0  0
  3  4  2  0  0  0
  4  5  1  0  0  0
  4  6  1  0  0  0
  6 27  1  0  0  0
 27 29  1  0  0  0
 29 30  2  0  0  0
 30 31  1  0  0  0
 31 32  2  0  0  0
 32 33  1  0  0  0
 33 34  2  0  0  0
 34 35  1  0  0  0
 35 36  2  0  0  0
 35 37  2  0  0  0
 35 38  1  0  0  0
 38 39  1  0  0  0
 38 40  1  0  0  0
  6  7  2  0  0  0
 12 16  1  0  0  0
 16 17  1  0  0  0
 17 18  1  0  0  0
 18 19  1  0  0  0
 19 20  1  0  0  0
 19 21  1  0  0  0
 21 22  1  0  0  0
 15 10  1  0  0  0
  7  1  1  0  0  0
 22 16  1  0  0  0
 34 29  1  0  0  0
  8  9  1  0  0  0
 27 28  1  0  0  0
 20 23  1  0  0  0
 20 24  1  0  0  0
M  END
> <minimizedAffinity>
-6.27853

> <CNNscore>
0.5978193879

> <CNNaffinity>
6.3437643051

> <CNN_VS>
3.7924253941

> <CNNaffinity_variance>
0.3258891106

$$$$
[H]c1nc(N([H])c2c([H])c([H])c(N3C([H])([H])C([H])([H])C([H])(N([H])[H])C([H])([H])C3([H])[H])c([H])c2OC([H])([H])[H])nc(N([H])c2c([H])c([H])c([H])c([H])c2S(=O)(=O)C([H])(C([H])([H])[H])C([H])([H])[H])c1Cl


 40 43  0  0  0  0  0  0  0  0999 V2000
   32.6413  -18.7331   35.3697 C   0  0  0  0  0  0  0  0  0  0  0  0
   31.5142  -18.5895   34.6746 N   0  0  0  0  0  0  0  0  0  0  0  0
   30.4830  -19.4305   34.7578 C   0  0  0  0  0  0  0  0  0  0  0  0
   30.5338  -20.5146   35.5863 C   0  0  0  0  0  0  0  0  0  0  0  0
   29.1978  -21.6458   35.7352 Cl  0  0  0  0  0  0  0  0  0  0  0  0
   31.7118  -20.7080   36.3445 C   0  0  0  0  0  0  0  0  0  0  0  0
   32.6754  -19.8136   36.1866 N   0  0  0  0  0  0  0  0  0  0  0  0
   33.7573  -17.9011   35.3378 N   0  0  0  0  0  0  0  0  0  0  0  0
   33.5726  -16.8509   35.4986 H   0  0  0  0  0  0  0  0  0  0  0  0
   36.0907  -17.6604   35.9388 C   0  0  0  0  0  0  0  0  0  0  0  0
   37.4372  -17.9241   35.8076 C   0  0  0  0  0  0  0  0  0  0  0  0
   37.8951  -18.7861   34.8405 C   0  0  0  0  0  0  0  0  0  0  0  0
   36.9507  -19.3581   34.0285 C   0  0  0  0  0  0  0  0  0  0  0  0
   35.5808  -19.0918   34.1598 C   0  0  0  0  0  0  0  0  0  0  0  0
   35.1115  -18.2299   35.1250 C   0  0  0  0  0  0  0  0  0  0  0  0
   39.2838  -19.0556   34.6880 N   0  0  0  0  0  0  0  0  0  0  0  0
   40.0536  -18.4533   33.5874 C   0  0  0  0  0  0  0  0  0  0  0  0
   41.1620  -19.3949   33.1720 C   0  0  0  0  0  0  0  0  0  0  0  0
   40.8215  -20.8509   33.3795 C   0  0  0  0  0  0  0  0  0  0  0  0
   41.9957  -21.6252   33.0269 N   0  0  0  0  0  0  0  0  0  0  0  0
   40.4888  -21.1547   34.8239 C   0  0  0  0  0  0  0  0  0  0  0  0
   40.0597  -19.9038   35.5622 C   0  0  0  0  0  0  0  0  0  0  0  0
   42.8667  -21.2225   33.4613 H   0  0  0  0  0  0  0  0  0  0  0  0
   42.0827  -21.8028   32.0177 H   0  0  0  0  0  0  0  0  0  0  0  0
   36.4830  -15.8409   37.5567 C   0  0  0  0  0  0  0  0  0  0  0  0
   35.6422  -16.7730   36.9378 O   0  0  0  0  0  0  0  0  0  0  0  0
   31.7739  -21.8511   37.1660 N   0  0  0  0  0  0  0  0  0  0  0  0
   32.0061  -21.7238   38.2057 H   0  0  0  0  0  0  0  0  0  0  0  0
   31.5967  -23.1785   36.7535 C   0  0  0  0  0  0  0  0  0  0  0  0
   32.0703  -23.6129   35.5296 C   0  0  0  0  0  0  0  0  0  0  0  0
   32.0018  -24.9512   35.1808 C   0  0  0  0  0  0  0  0  0  0  0  0
   31.4704  -25.8970   36.0184 C   0  0  0  0  0  0  0  0  0  0  0  0
   31.0048  -25.4567   37.2245 C   0  0  0  0  0  0  0  0  0  0  0  0
   31.0503  -24.1160   37.6201 C   0  0  0  0  0  0  0  0  0  0  0  0
   30.2995  -23.7415   39.1404 S   0  0  0  0  0  0  0  0  0  0  0  0
   29.5156  -22.4277   38.9831 O   0  0  0  0  0  0  0  0  0  0  0  0
   29.2156  -24.7375   39.5084 O   0  0  0  0  0  0  0  0  0  0  0  0
   31.4162  -23.4683   40.4583 C   0  0  0  0  0  0  0  0  0  0  0  0
   30.7896  -23.9172   41.7926 C   0  0  0  0  0  0  0  0  0  0  0  0
   32.7167  -24.1604   40.3202 C   0  0  0  0  0  0  0  0  0  0  0  0
 25 26  1  0  0  0
 26 10  1  0  0  0
 10 11  2  0  0  0
 11 12  1  0  0  0
 12 13  2  0  0  0
 13 14  1  0  0  0
 14 15  2  0  0  0
 15  8  1  0  0  0
  8  1  1  0  0  0
  1  2  2  0  0  0
  2  3  1  0  0  0
  3  4  2  0  0  0
  4  5  1  0  0  0
  4  6  1  0  0  0
  6 27  1  0  0  0
 27 29  1  0  0  0
 29 30  2  0  0  0
 30 31  1  0  0  0
 31 32  2  0  0  0
 32 33  1  0  0  0
 33 34  2  0  0  0
 34 35  1  0  0  0
 35 36  2  0  0  0
 35 37  2  0  0  0
 35 38  1  0  0  0
 38 39  1  0  0  0
 38 40  1  0  0  0
  6  7  2  0  0  0
 12 16  1  0  0  0
 16 17  1  0  0  0
 17 18  1  0  0  0
 18 19  1  0  0  0
 19 20  1  0  0  0
 19 21  1  0  0  0
 21 22  1  0  0  0
 15 10  1  0  0  0
  7  1  1  0  0  0
 22 16  1  0  0  0
 34 29  1  0  0  0
  8  9  1  0  0  0
 27 28  1  0  0  0
 20 23  1  0  0  0
 20 24  1  0  0  0
M  END
> <minimizedAffinity>
-5.93974

> <CNNscore>
0.4344276786

> <CNNaffinity>
6.4105529785

> <CNN_VS>
2.7849216461

> <CNNaffinity_variance>
0.5254255533

$$$$
[H]c1nc(N([H])c2c([H])c([H])c(N3C([H])([H])C([H])([H])C([H])(N([H])[H])C([H])([H])C3([H])[H])c([H])c2OC([H])([H])[H])nc(N([H])c2c([H])c([H])c([H])c([H])c2S(=O)(=O)C([H])(C([H])([H])[H])C([H])([H])[H])c1Cl


 40 43  0  0  0  0  0  0  0  0999 V2000
   33.7553  -14.2763   36.6268 C   0  0  0  0  0  0  0  0  0  0  0  0
   34.5247  -13.2964   36.1558 N   0  0  0  0  0  0  0  0  0  0  0  0
   34.4484  -12.0322   36.5726 C   0  0  0  0  0  0  0  0  0  0  0  0
   33.5490  -11.6690   37.5335 C   0  0  0  0  0  0  0  0  0  0  0  0
   33.4168  -10.0181   38.1197 Cl  0  0  0  0  0  0  0  0  0  0  0  0
   32.7100  -12.6768   38.0633 C   0  0  0  0  0  0  0  0  0  0  0  0
   32.8684  -13.8991   37.5793 N   0  0  0  0  0  0  0  0  0  0  0  0
   33.7751  -15.6149   36.2442 N   0  0  0  0  0  0  0  0  0  0  0  0
   32.8153  -16.0737   36.0683 H   0  0  0  0  0  0  0  0  0  0  0  0
   34.8168  -17.4484   35.0539 C   0  0  0  0  0  0  0  0  0  0  0  0
   35.8441  -18.3281   34.7879 C   0  0  0  0  0  0  0  0  0  0  0  0
   37.0122  -18.2860   35.5103 C   0  0  0  0  0  0  0  0  0  0  0  0
   37.0941  -17.3345   36.4934 C   0  0  0  0  0  0  0  0  0  0  0  0
   36.0510  -16.4386   36.7657 C   0  0  0  0  0  0  0  0  0  0  0  0
   34.8768  -16.4723   36.0483 C   0  0  0  0  0  0  0  0  0  0  0  0
   38.0739  -19.1975   35.2527 N   0  0  0  0  0  0  0  0  0  0  0  0
   39.1925  -19.3407   36.1987 C   0  0  0  0  0  0  0  0  0  0  0  0
   40.4524  -19.6956   35.4408 C   0  0  0  0  0  0  0  0  0  0  0  0
   40.4870  -19.1361   34.0392 C   0  0  0  0  0  0  0  0  0  0  0  0
   41.6970  -19.6249   33.4070 N   0  0  0  0  0  0  0  0  0  0  0  0
   39.3133  -19.6106   33.2107 C   0  0  0  0  0  0  0  0  0  0  0  0
   38.1632  -20.0520   34.0919 C   0  0  0  0  0  0  0  0  0  0  0  0
   41.8216  -20.6593   33.5629 H   0  0  0  0  0  0  0  0  0  0  0  0
   42.5324  -19.0703   33.6350 H   0  0  0  0  0  0  0  0  0  0  0  0
   32.7717  -18.6163   34.3220 C   0  0  0  0  0  0  0  0  0  0  0  0
   33.6270  -17.5086   34.3007 O   0  0  0  0  0  0  0  0  0  0  0  0
   31.7560  -12.2873   39.0243 N   0  0  0  0  0  0  0  0  0  0  0  0
   32.0551  -12.2385   40.0536 H   0  0  0  0  0  0  0  0  0  0  0  0
   30.4101  -11.9835   38.7802 C   0  0  0  0  0  0  0  0  0  0  0  0
   30.0371  -11.2403   37.6758 C   0  0  0  0  0  0  0  0  0  0  0  0
   28.6996  -11.0483   37.3732 C   0  0  0  0  0  0  0  0  0  0  0  0
   27.6948  -11.5777   38.1405 C   0  0  0  0  0  0  0  0  0  0  0  0
   28.0746  -12.3094   39.2294 C   0  0  0  0  0  0  0  0  0  0  0  0
   29.4117  -12.5288   39.5765 C   0  0  0  0  0  0  0  0  0  0  0  0
   29.6853  -13.3842   41.0627 S   0  0  0  0  0  0  0  0  0  0  0  0
   31.1080  -13.0639   41.5511 O   0  0  0  0  0  0  0  0  0  0  0  0
   28.8170  -12.8659   42.1940 O   0  0  0  0  0  0  0  0  0  0  0  0
   29.6158  -15.1263   40.9256 C   0  0  0  0  0  0  0  0  0  0  0  0
   29.5192  -15.7697   42.3225 C   0  0  0  0  0  0  0  0  0  0  0  0
   28.4860  -15.6383   40.1187 C   0  0  0  0  0  0  0  0  0  0  0  0
 25 26  1  0  0  0
 26 10  1  0  0  0
 10 11  2  0  0  0
 11 12  1  0  0  0
 12 13  2  0  0  0
 13 14  1  0  0  0
 14 15  2  0  0  0
 15  8  1  0  0  0
  8  1  1  0  0  0
  1  2  2  0  0  0
  2  3  1  0  0  0
  3  4  2  0  0  0
  4  5  1  0  0  0
  4  6  1  0  0  0
  6 27  1  0  0  0
 27 29  1  0  0  0
 29 30  2  0  0  0
 30 31  1  0  0  0
 31 32  2  0  0  0
 32 33  1  0  0  0
 33 34  2  0  0  0
 34 35  1  0  0  0
 35 36  2  0  0  0
 35 37  2  0  0  0
 35 38  1  0  0  0
 38 39  1  0  0  0
 38 40  1  0  0  0
  6  7  2  0  0  0
 12 16  1  0  0  0
 16 17  1  0  0  0
 17 18  1  0  0  0
 18 19  1  0  0  0
 19 20  1  0  0  0
 19 21  1  0  0  0
 21 22  1  0  0  0
 15 10  1  0  0  0
  7  1  1  0  0  0
 22 16  1  0  0  0
 34 29  1  0  0  0
  8  9  1  0  0  0
 27 28  1  0  0  0
 20 23  1  0  0  0
 20 24  1  0  0  0
M  END
> <minimizedAffinity>
-8.91868

> <CNNscore>
0.3814758062

> <CNNaffinity>
7.0304641724

> <CNN_VS>
2.6819519997

> <CNNaffinity_variance>
0.0473364554

$$$$
[H]c1nc(N([H])c2c([H])c([H])c(N3C([H])([H])C([H])([H])C([H])(N([H])[H])C([H])([H])C3([H])[H])c([H])c2OC([H])([H])[H])nc(N([H])c2c([H])c([H])c([H])c([H])c2S(=O)(=O)C([H])(C([H])([H])[H])C([H])([H])[H])c1Cl


 40 43  0  0  0  0  0  0  0  0999 V2000
   33.7319  -16.7043   35.3513 C   0  0  0  0  0  0  0  0  0  0  0  0
   33.7147  -15.4157   35.6881 N   0  0  0  0  0  0  0  0  0  0  0  0
   34.6342  -14.8432   36.4655 C   0  0  0  0  0  0  0  0  0  0  0  0
   35.6715  -15.5734   36.9703 C   0  0  0  0  0  0  0  0  0  0  0  0
   36.9108  -14.8618   37.9924 Cl  0  0  0  0  0  0  0  0  0  0  0  0
   35.7310  -16.9471   36.6393 C   0  0  0  0  0  0  0  0  0  0  0  0
   34.7675  -17.4145   35.8605 N   0  0  0  0  0  0  0  0  0  0  0  0
   32.8122  -17.3728   34.5476 N   0  0  0  0  0  0  0  0  0  0  0  0
   32.4686  -16.8413   33.6745 H   0  0  0  0  0  0  0  0  0  0  0  0
   32.9004  -19.7581   34.1393 C   0  0  0  0  0  0  0  0  0  0  0  0
   32.4334  -21.0507   34.2433 C   0  0  0  0  0  0  0  0  0  0  0  0
   31.2757  -21.3283   34.9295 C   0  0  0  0  0  0  0  0  0  0  0  0
   30.6244  -20.2627   35.4944 C   0  0  0  0  0  0  0  0  0  0  0  0
   31.0972  -18.9473   35.3902 C   0  0  0  0  0  0  0  0  0  0  0  0
   32.2556  -18.6583   34.7051 C   0  0  0  0  0  0  0  0  0  0  0  0
   30.7779  -22.6571   35.0323 N   0  0  0  0  0  0  0  0  0  0  0  0
   29.4502  -22.9236   35.6093 C   0  0  0  0  0  0  0  0  0  0  0  0
   29.4595  -24.2709   36.2966 C   0  0  0  0  0  0  0  0  0  0  0  0
   30.8091  -24.6487   36.8577 C   0  0  0  0  0  0  0  0  0  0  0  0
   30.6927  -25.9875   37.4024 N   0  0  0  0  0  0  0  0  0  0  0  0
   31.8787  -24.6804   35.7880 C   0  0  0  0  0  0  0  0  0  0  0  0
   31.4836  -23.8380   34.5929 C   0  0  0  0  0  0  0  0  0  0  0  0
   30.2032  -26.6348   36.7309 H   0  0  0  0  0  0  0  0  0  0  0  0
   30.3048  -26.0113   38.3545 H   0  0  0  0  0  0  0  0  0  0  0  0
   35.3608  -19.6903   33.9849 C   0  0  0  0  0  0  0  0  0  0  0  0
   34.0904  -19.4953   33.4311 O   0  0  0  0  0  0  0  0  0  0  0  0
   36.7807  -17.7037   37.1972 N   0  0  0  0  0  0  0  0  0  0  0  0
   37.7271  -17.2255   37.3609 H   0  0  0  0  0  0  0  0  0  0  0  0
   36.7331  -19.0622   37.5374 C   0  0  0  0  0  0  0  0  0  0  0  0
   35.7351  -19.5564   38.3565 C   0  0  0  0  0  0  0  0  0  0  0  0
   35.6217  -20.9168   38.5887 C   0  0  0  0  0  0  0  0  0  0  0  0
   36.4788  -21.8267   38.0265 C   0  0  0  0  0  0  0  0  0  0  0  0
   37.4613  -21.3274   37.2199 C   0  0  0  0  0  0  0  0  0  0  0  0
   37.6171  -19.9625   36.9574 C   0  0  0  0  0  0  0  0  0  0  0  0
   38.9989  -19.5202   36.0032 S   0  0  0  0  0  0  0  0  0  0  0  0
   38.5192  -18.6472   34.8316 O   0  0  0  0  0  0  0  0  0  0  0  0
   39.9412  -18.5938   36.7489 O   0  0  0  0  0  0  0  0  0  0  0  0
   39.8424  -20.8667   35.2724 C   0  0  0  0  0  0  0  0  0  0  0  0
   40.3018  -20.5008   33.8478 C   0  0  0  0  0  0  0  0  0  0  0  0
   41.0320  -21.3304   36.0203 C   0  0  0  0  0  0  0  0  0  0  0  0
 25 26  1  0  0  0
 26 10  1  0  0  0
 10 11  2  0  0  0
 11 12  1  0  0  0
 12 13  2  0  0  0
 13 14  1  0  0  0
 14 15  2  0  0  0
 15  8  1  0  0  0
  8  1  1  0  0  0
  1  2  2  0  0  0
  2  3  1  0  0  0
  3  4  2  0  0  0
  4  5  1  0  0  0
  4  6  1  0  0  0
  6 27  1  0  0  0
 27 29  1  0  0  0
 29 30  2  0  0  0
 30 31  1  0  0  0
 31 32  2  0  0  0
 32 33  1  0  0  0
 33 34  2  0  0  0
 34 35  1  0  0  0
 35 36  2  0  0  0
 35 37  2  0  0  0
 35 38  1  0  0  0
 38 39  1  0  0  0
 38 40  1  0  0  0
  6  7  2  0  0  0
 12 16  1  0  0  0
 16 17  1  0  0  0
 17 18  1  0  0  0
 18 19  1  0  0  0
 19 20  1  0  0  0
 19 21  1  0  0  0
 21 22  1  0  0  0
 15 10  1  0  0  0
  7  1  1  0  0  0
 22 16  1  0  0  0
 34 29  1  0  0  0
  8  9  1  0  0  0
 27 28  1  0  0  0
 20 23  1  0  0  0
 20 24  1  0  0  0
M  END
> <minimizedAffinity>
-6.38595

> <CNNscore>
0.3586294651

> <CNNaffinity>
6.2215361595

> <CNN_VS>
2.2312262058

> <CNNaffinity_variance>
0.4592873454

$$$$
[H]c1nc(N([H])c2c([H])c([H])c(N3C([H])([H])C([H])([H])C([H])(N([H])[H])C([H])([H])C3([H])[H])c([H])c2OC([H])([H])[H])nc(N([H])c2c([H])c([H])c([H])c([H])c2S(=O)(=O)C([H])(C([H])([H])[H])C([H])([H])[H])c1Cl


 40 43  0  0  0  0  0  0  0  0999 V2000
   33.1376  -18.6908   35.2673 C   0  0  0  0  0  0  0  0  0  0  0  0
   32.0701  -18.5920   34.4769 N   0  0  0  0  0  0  0  0  0  0  0  0
   31.0050  -19.3884   34.5714 C   0  0  0  0  0  0  0  0  0  0  0  0
   30.9551  -20.3754   35.5134 C   0  0  0  0  0  0  0  0  0  0  0  0
   29.5706  -21.4440   35.6812 Cl  0  0  0  0  0  0  0  0  0  0  0  0
   32.0670  -20.5182   36.3757 C   0  0  0  0  0  0  0  0  0  0  0  0
   33.0721  -19.6751   36.1961 N   0  0  0  0  0  0  0  0  0  0  0  0
   34.2832  -17.9002   35.2309 N   0  0  0  0  0  0  0  0  0  0  0  0
   34.1286  -16.8351   35.2970 H   0  0  0  0  0  0  0  0  0  0  0  0
   36.5197  -17.9888   36.1553 C   0  0  0  0  0  0  0  0  0  0  0  0
   37.8549  -18.3303   36.1371 C   0  0  0  0  0  0  0  0  0  0  0  0
   38.3956  -19.0021   35.0673 C   0  0  0  0  0  0  0  0  0  0  0  0
   37.5438  -19.3073   34.0378 C   0  0  0  0  0  0  0  0  0  0  0  0
   36.1856  -18.9614   34.0539 C   0  0  0  0  0  0  0  0  0  0  0  0
   35.6339  -18.2883   35.1204 C   0  0  0  0  0  0  0  0  0  0  0  0
   39.7752  -19.3482   35.0325 N   0  0  0  0  0  0  0  0  0  0  0  0
   40.6475  -19.0921   36.1902 C   0  0  0  0  0  0  0  0  0  0  0  0
   42.0528  -18.8056   35.7100 C   0  0  0  0  0  0  0  0  0  0  0  0
   42.1005  -18.1545   34.3489 C   0  0  0  0  0  0  0  0  0  0  0  0
   43.4967  -18.0216   33.9806 N   0  0  0  0  0  0  0  0  0  0  0  0
   41.4263  -19.0013   33.2918 C   0  0  0  0  0  0  0  0  0  0  0  0
   40.4409  -19.9701   33.9119 C   0  0  0  0  0  0  0  0  0  0  0  0
   44.0271  -18.9150   34.1543 H   0  0  0  0  0  0  0  0  0  0  0  0
   43.9495  -17.1892   34.3802 H   0  0  0  0  0  0  0  0  0  0  0  0
   36.3558  -15.9911   37.5920 C   0  0  0  0  0  0  0  0  0  0  0  0
   35.9852  -17.2999   37.2627 O   0  0  0  0  0  0  0  0  0  0  0  0
   32.0266  -21.5651   37.3179 N   0  0  0  0  0  0  0  0  0  0  0  0
   31.3332  -21.4947   38.1336 H   0  0  0  0  0  0  0  0  0  0  0  0
   32.8430  -22.7039   37.3268 C   0  0  0  0  0  0  0  0  0  0  0  0
   32.6586  -23.7191   36.4068 C   0  0  0  0  0  0  0  0  0  0  0  0
   33.5437  -24.7820   36.3417 C   0  0  0  0  0  0  0  0  0  0  0  0
   34.6300  -24.8786   37.1720 C   0  0  0  0  0  0  0  0  0  0  0  0
   34.8020  -23.8707   38.0774 C   0  0  0  0  0  0  0  0  0  0  0  0
   33.9342  -22.7788   38.1823 C   0  0  0  0  0  0  0  0  0  0  0  0
   34.2584  -21.6661   39.4755 S   0  0  0  0  0  0  0  0  0  0  0  0
   34.5619  -20.2880   38.8641 O   0  0  0  0  0  0  0  0  0  0  0  0
   33.0296  -21.3944   40.3233 O   0  0  0  0  0  0  0  0  0  0  0  0
   35.6542  -22.0664   40.4502 C   0  0  0  0  0  0  0  0  0  0  0  0
   36.8871  -21.2771   39.9691 C   0  0  0  0  0  0  0  0  0  0  0  0
   35.4931  -21.8049   41.8976 C   0  0  0  0  0  0  0  0  0  0  0  0
 25 26  1  0  0  0
 26 10  1  0  0  0
 10 11  2  0  0  0
 11 12  1  0  0  0
 12 13  2  0  0  0
 13 14  1  0  0  0
 14 15  2  0  0  0
 15  8  1  0  0  0
  8  1  1  0  0  0
  1  2  2  0  0  0
  2  3  1  0  0  0
  3  4  2  0  0  0
  4  5  1  0  0  0
  4  6  1  0  0  0
  6 27  1  0  0  0
 27 29  1  0  0  0
 29 30  2  0  0  0
 30 31  1  0  0  0
 31 32  2  0  0  0
 32 33  1  0  0  0
 33 34  2  0  0  0
 34 35  1  0  0  0
 35 36  2  0  0  0
 35 37  2  0  0  0
 35 38  1  0  0  0
 38 39  1  0  0  0
 38 40  1  0  0  0
  6  7  2  0  0  0
 12 16  1  0  0  0
 16 17  1  0  0  0
 17 18  1  0  0  0
 18 19  1  0  0  0
 19 20  1  0  0  0
 19 21  1  0  0  0
 21 22  1  0  0  0
 15 10  1  0  0  0
  7  1  1  0  0  0
 22 16  1  0  0  0
 34 29  1  0  0  0
  8  9  1  0  0  0
 27 28  1  0  0  0
 20 23  1  0  0  0
 20 24  1  0  0  0
M  END
> <minimizedAffinity>
-6.63750

> <CNNscore>
0.3044638634

> <CNNaffinity>
6.1672291756

> <CNN_VS>
1.8776984215

> <CNNaffinity_variance>
0.7486293316

$$$$
[H]c1nc(N([H])c2c([H])c([H])c(N3C([H])([H])C([H])([H])C([H])(N([H])[H])C([H])([H])C3([H])[H])c([H])c2OC([H])([H])[H])nc(N([H])c2c([H])c([H])c([H])c([H])c2S(=O)(=O)C([H])(C([H])([H])[H])C([H])([H])[H])c1Cl


 40 43  0  0  0  0  0  0  0  0999 V2000
   33.5692  -17.3615   35.0309 C   0  0  0  0  0  0  0  0  0  0  0  0
   33.4178  -16.1200   35.4889 N   0  0  0  0  0  0  0  0  0  0  0  0
   34.3744  -15.4471   36.1290 C   0  0  0  0  0  0  0  0  0  0  0  0
   35.5951  -16.0162   36.3531 C   0  0  0  0  0  0  0  0  0  0  0  0
   36.8886  -15.1666   37.1848 Cl  0  0  0  0  0  0  0  0  0  0  0  0
   35.8020  -17.3344   35.8844 C   0  0  0  0  0  0  0  0  0  0  0  0
   34.7858  -17.9115   35.2616 N   0  0  0  0  0  0  0  0  0  0  0  0
   32.6222  -18.1270   34.3558 N   0  0  0  0  0  0  0  0  0  0  0  0
   32.0861  -17.6301   33.5630 H   0  0  0  0  0  0  0  0  0  0  0  0
   31.0740  -19.7670   35.2377 C   0  0  0  0  0  0  0  0  0  0  0  0
   30.6324  -21.0505   35.4769 C   0  0  0  0  0  0  0  0  0  0  0  0
   31.3538  -22.1361   35.0420 C   0  0  0  0  0  0  0  0  0  0  0  0
   32.5178  -21.8718   34.3682 C   0  0  0  0  0  0  0  0  0  0  0  0
   32.9690  -20.5675   34.1236 C   0  0  0  0  0  0  0  0  0  0  0  0
   32.2542  -19.4732   34.5549 C   0  0  0  0  0  0  0  0  0  0  0  0
   30.9138  -23.4653   35.2945 N   0  0  0  0  0  0  0  0  0  0  0  0
   30.7474  -24.4278   34.1931 C   0  0  0  0  0  0  0  0  0  0  0  0
   29.6304  -25.3908   34.5286 C   0  0  0  0  0  0  0  0  0  0  0  0
   28.5591  -24.7856   35.4033 C   0  0  0  0  0  0  0  0  0  0  0  0
   27.6094  -25.8362   35.7151 N   0  0  0  0  0  0  0  0  0  0  0  0
   29.1193  -24.2711   36.7112 C   0  0  0  0  0  0  0  0  0  0  0  0
   30.6048  -23.9971   36.6011 C   0  0  0  0  0  0  0  0  0  0  0  0
   28.0980  -26.7189   36.0178 H   0  0  0  0  0  0  0  0  0  0  0  0
   26.9063  -25.9857   34.9799 H   0  0  0  0  0  0  0  0  0  0  0  0
   28.9215  -18.6897   35.7746 C   0  0  0  0  0  0  0  0  0  0  0  0
   30.3185  -18.6674   35.6924 O   0  0  0  0  0  0  0  0  0  0  0  0
   37.0495  -17.9307   36.1555 N   0  0  0  0  0  0  0  0  0  0  0  0
   37.9415  -17.4027   35.8786 H   0  0  0  0  0  0  0  0  0  0  0  0
   37.2579  -19.1913   36.7306 C   0  0  0  0  0  0  0  0  0  0  0  0
   36.5472  -19.5907   37.8470 C   0  0  0  0  0  0  0  0  0  0  0  0
   36.6675  -20.8805   38.3362 C   0  0  0  0  0  0  0  0  0  0  0  0
   37.4835  -21.8110   37.7470 C   0  0  0  0  0  0  0  0  0  0  0  0
   38.1815  -21.4054   36.6454 C   0  0  0  0  0  0  0  0  0  0  0  0
   38.0945  -20.1138   36.1161 C   0  0  0  0  0  0  0  0  0  0  0  0
   39.1512  -19.7605   34.7842 S   0  0  0  0  0  0  0  0  0  0  0  0
   39.2291  -21.0051   33.8842 O   0  0  0  0  0  0  0  0  0  0  0  0
   38.5746  -18.7090   33.8545 O   0  0  0  0  0  0  0  0  0  0  0  0
   40.8021  -19.4032   35.2372 C   0  0  0  0  0  0  0  0  0  0  0  0
   41.4666  -18.5063   34.1748 C   0  0  0  0  0  0  0  0  0  0  0  0
   40.9522  -18.7308   36.5468 C   0  0  0  0  0  0  0  0  0  0  0  0
 25 26  1  0  0  0
 26 10  1  0  0  0
 10 11  2  0  0  0
 11 12  1  0  0  0
 12 13  2  0  0  0
 13 14  1  0  0  0
 14 15  2  0  0  0
 15  8  1  0  0  0
  8  1  1  0  0  0
  1  2  2  0  0  0
  2  3  1  0  0  0
  3  4  2  0  0  0
  4  5  1  0  0  0
  4  6  1  0  0  0
  6 27  1  0  0  0
 27 29  1  0  0  0
 29 30  2  0  0  0
 30 31  1  0  0  0
 31 32  2  0  0  0
 32 33  1  0  0  0
 33 34  2  0  0  0
 34 35  1  0  0  0
 35 36  2  0  0  0
 35 37  2  0  0  0
 35 38  1  0  0  0
 38 39  1  0  0  0
 38 40  1  0  0  0
  6  7  2  0  0  0
 12 16  1  0  0  0
 16 17  1  0  0  0
 17 18  1  0  0  0
 18 19  1  0  0  0
 19 20  1  0  0  0
 19 21  1  0  0  0
 21 22  1  0  0  0
 15 10  1  0  0  0
  7  1  1  0  0  0
 22 16  1  0  0  0
 34 29  1  0  0  0
  8  9  1  0  0  0
 27 28  1  0  0  0
 20 23  1  0  0  0
 20 24  1  0  0  0
M  END
> <minimizedAffinity>
-6.08601

> <CNNscore>
0.2420485914

> <CNNaffinity>
6.0169548988

> <CNN_VS>
1.4563955069

> <CNNaffinity_variance>
0.4680504203

$$$$
[H]c1nc(N([H])c2c([H])c([H])c(N3C([H])([H])C([H])([H])C([H])(N([H])[H])C([H])([H])C3([H])[H])c([H])c2OC([H])([H])[H])nc(N([H])c2c([H])c([H])c([H])c([H])c2S(=O)(=O)C([H])(C([H])([H])[H])C([H])([H])[H])c1Cl


 40 43  0  0  0  0  0  0  0  0999 V2000
   34.3604  -14.1587   37.3721 C   0  0  0  0  0  0  0  0  0  0  0  0
   35.1774  -13.2576   36.8293 N   0  0  0  0  0  0  0  0  0  0  0  0
   34.9549  -11.9434   36.8640 C   0  0  0  0  0  0  0  0  0  0  0  0
   33.8433  -11.4414   37.4775 C   0  0  0  0  0  0  0  0  0  0  0  0
   33.5115   -9.7179   37.5553 Cl  0  0  0  0  0  0  0  0  0  0  0  0
   32.9463  -12.3615   38.0683 C   0  0  0  0  0  0  0  0  0  0  0  0
   33.2624  -13.6441   37.9766 N   0  0  0  0  0  0  0  0  0  0  0  0
   34.5231  -15.5415   37.3775 N   0  0  0  0  0  0  0  0  0  0  0  0
   33.7591  -16.1086   37.8850 H   0  0  0  0  0  0  0  0  0  0  0  0
   35.2903  -17.0639   35.6577 C   0  0  0  0  0  0  0  0  0  0  0  0
   36.2313  -17.8530   35.0318 C   0  0  0  0  0  0  0  0  0  0  0  0
   37.5093  -17.9519   35.5267 C   0  0  0  0  0  0  0  0  0  0  0  0
   37.7882  -17.2322   36.6594 C   0  0  0  0  0  0  0  0  0  0  0  0
   36.8332  -16.4289   37.2977 C   0  0  0  0  0  0  0  0  0  0  0  0
   35.5503  -16.3230   36.8104 C   0  0  0  0  0  0  0  0  0  0  0  0
   38.4848  -18.7733   34.8959 N   0  0  0  0  0  0  0  0  0  0  0  0
   39.3831  -19.6257   35.6917 C   0  0  0  0  0  0  0  0  0  0  0  0
   40.7108  -19.7626   34.9804 C   0  0  0  0  0  0  0  0  0  0  0  0
   41.0714  -18.5573   34.1461 C   0  0  0  0  0  0  0  0  0  0  0  0
   42.3113  -18.8613   33.4583 N   0  0  0  0  0  0  0  0  0  0  0  0
   40.0243  -18.2624   33.0944 C   0  0  0  0  0  0  0  0  0  0  0  0
   38.6864  -18.8657   33.4689 C   0  0  0  0  0  0  0  0  0  0  0  0
   42.2813  -19.8166   33.0155 H   0  0  0  0  0  0  0  0  0  0  0  0
   43.1494  -18.6989   34.0315 H   0  0  0  0  0  0  0  0  0  0  0  0
   33.5386  -17.7750   34.0740 C   0  0  0  0  0  0  0  0  0  0  0  0
   33.9850  -16.9764   35.1332 O   0  0  0  0  0  0  0  0  0  0  0  0
   31.7805  -11.8397   38.6632 N   0  0  0  0  0  0  0  0  0  0  0  0
   31.6504  -10.7750   38.6894 H   0  0  0  0  0  0  0  0  0  0  0  0
   30.7602  -12.5796   39.2754 C   0  0  0  0  0  0  0  0  0  0  0  0
   31.0319  -13.7775   39.9096 C   0  0  0  0  0  0  0  0  0  0  0  0
   30.0440  -14.4414   40.6174 C   0  0  0  0  0  0  0  0  0  0  0  0
   28.7683  -13.9515   40.7235 C   0  0  0  0  0  0  0  0  0  0  0  0
   28.5108  -12.7680   40.0924 C   0  0  0  0  0  0  0  0  0  0  0  0
   29.4745  -12.0625   39.3645 C   0  0  0  0  0  0  0  0  0  0  0  0
   28.9184  -10.6404   38.5376 S   0  0  0  0  0  0  0  0  0  0  0  0
   30.1406   -9.9061   37.9611 O   0  0  0  0  0  0  0  0  0  0  0  0
   28.1108  -10.9741   37.2971 O   0  0  0  0  0  0  0  0  0  0  0  0
   28.1062   -9.4741   39.5567 C   0  0  0  0  0  0  0  0  0  0  0  0
   28.6115   -8.0512   39.2497 C   0  0  0  0  0  0  0  0  0  0  0  0
   26.6320   -9.4620   39.4290 C   0  0  0  0  0  0  0  0  0  0  0  0
 25 26  1  0  0  0
 26 10  1  0  0  0
 10 11  2  0  0  0
 11 12  1  0  0  0
 12 13  2  0  0  0
 13 14  1  0  0  0
 14 15  2  0  0  0
 15  8  1  0  0  0
  8  1  1  0  0  0
  1  2  2  0  0  0
  2  3  1  0  0  0
  3  4  2  0  0  0
  4  5  1  0  0  0
  4  6  1  0  0  0
  6 27  1  0  0  0
 27 29  1  0  0  0
 29 30  2  0  0  0
 30 31  1  0  0  0
 31 32  2  0  0  0
 32 33  1  0  0  0
 33 34  2  0  0  0
 34 35  1  0  0  0
 35 36  2  0  0  0
 35 37  2  0  0  0
 35 38  1  0  0  0
 38 39  1  0  0  0
 38 40  1  0  0  0
  6  7  2  0  0  0
 12 16  1  0  0  0
 16 17  1  0  0  0
 17 18  1  0  0  0
 18 19  1  0  0  0
 19 20  1  0  0  0
 19 21  1  0  0  0
 21 22  1  0  0  0
 15 10  1  0  0  0
  7  1  1  0  0  0
 22 16  1  0  0  0
 34 29  1  0  0  0
  8  9  1  0  0  0
 27 28  1  0  0  0
 20 23  1  0  0  0
 20 24  1  0  0  0
M  END
> <minimizedAffinity>
-7.02799

> <CNNscore>
0.1925919205

> <CNNaffinity>
6.6499047279

> <CNN_VS>
1.2807179689

> <CNNaffinity_variance>
0.1271428466

$$$$
[H]c1nc(N([H])c2c([H])c([H])c(N3C([H])([H])C([H])([H])C([H])(N([H])[H])C([H])([H])C3([H])[H])c([H])c2OC([H])([H])[H])nc(N([H])c2c([H])c([H])c([H])c([H])c2S(=O)(=O)C([H])(C([H])([H])[H])C([H])([H])[H])c1Cl


 40 43  0  0  0  0  0  0  0  0999 V2000
   32.6713  -18.6610   35.3007 C   0  0  0  0  0  0  0  0  0  0  0  0
   31.4967  -18.4779   34.7000 N   0  0  0  0  0  0  0  0  0  0  0  0
   30.4747  -19.3281   34.8017 C   0  0  0  0  0  0  0  0  0  0  0  0
   30.5861  -20.4642   35.5506 C   0  0  0  0  0  0  0  0  0  0  0  0
   29.2651  -21.6100   35.7205 Cl  0  0  0  0  0  0  0  0  0  0  0  0
   31.8162  -20.7009   36.2072 C   0  0  0  0  0  0  0  0  0  0  0  0
   32.7653  -19.7929   36.0396 N   0  0  0  0  0  0  0  0  0  0  0  0
   33.7816  -17.8228   35.2433 N   0  0  0  0  0  0  0  0  0  0  0  0
   33.5898  -16.7695   35.3727 H   0  0  0  0  0  0  0  0  0  0  0  0
   36.1195  -17.4874   35.7778 C   0  0  0  0  0  0  0  0  0  0  0  0
   37.4683  -17.7406   35.6492 C   0  0  0  0  0  0  0  0  0  0  0  0
   37.9263  -18.6843   34.7616 C   0  0  0  0  0  0  0  0  0  0  0  0
   36.9795  -19.3471   34.0248 C   0  0  0  0  0  0  0  0  0  0  0  0
   35.6073  -19.0916   34.1538 C   0  0  0  0  0  0  0  0  0  0  0  0
   35.1380  -18.1485   35.0397 C   0  0  0  0  0  0  0  0  0  0  0  0
   39.3169  -18.9446   34.6117 N   0  0  0  0  0  0  0  0  0  0  0  0
   40.0685  -18.3997   33.4693 C   0  0  0  0  0  0  0  0  0  0  0  0
   41.1855  -19.3502   33.1001 C   0  0  0  0  0  0  0  0  0  0  0  0
   40.8664  -20.7954   33.3978 C   0  0  0  0  0  0  0  0  0  0  0  0
   42.0476  -21.5744   33.0805 N   0  0  0  0  0  0  0  0  0  0  0  0
   40.5512  -21.0161   34.8611 C   0  0  0  0  0  0  0  0  0  0  0  0
   40.1121  -19.7288   35.5274 C   0  0  0  0  0  0  0  0  0  0  0  0
   42.9171  -21.1352   33.4813 H   0  0  0  0  0  0  0  0  0  0  0  0
   42.1277  -21.8112   32.0831 H   0  0  0  0  0  0  0  0  0  0  0  0
   36.4779  -16.0127   37.7217 C   0  0  0  0  0  0  0  0  0  0  0  0
   35.6710  -16.5152   36.6945 O   0  0  0  0  0  0  0  0  0  0  0  0
   31.9383  -21.8955   36.9444 N   0  0  0  0  0  0  0  0  0  0  0  0
   31.1046  -22.2206   37.5363 H   0  0  0  0  0  0  0  0  0  0  0  0
   33.0761  -22.7098   37.0202 C   0  0  0  0  0  0  0  0  0  0  0  0
   34.2164  -22.2806   37.6733 C   0  0  0  0  0  0  0  0  0  0  0  0
   35.2916  -23.1349   37.8515 C   0  0  0  0  0  0  0  0  0  0  0  0
   35.2789  -24.4280   37.3973 C   0  0  0  0  0  0  0  0  0  0  0  0
   34.1479  -24.8411   36.7527 C   0  0  0  0  0  0  0  0  0  0  0  0
   33.0383  -24.0148   36.5471 C   0  0  0  0  0  0  0  0  0  0  0  0
   31.7472  -24.6897   35.6021 S   0  0  0  0  0  0  0  0  0  0  0  0
   31.4484  -23.7323   34.4362 O   0  0  0  0  0  0  0  0  0  0  0  0
   32.1592  -25.9658   34.8920 O   0  0  0  0  0  0  0  0  0  0  0  0
   30.2341  -24.8737   36.4596 C   0  0  0  0  0  0  0  0  0  0  0  0
   29.3615  -25.9474   35.7811 C   0  0  0  0  0  0  0  0  0  0  0  0
   30.3725  -25.2458   37.8851 C   0  0  0  0  0  0  0  0  0  0  0  0
 25 26  1  0  0  0
 26 10  1  0  0  0
 10 11  2  0  0  0
 11 12  1  0  0  0
 12 13  2  0  0  0
 13 14  1  0  0  0
 14 15  2  0  0  0
 15  8  1  0  0  0
  8  1  1  0  0  0
  1  2  2  0  0  0
  2  3  1  0  0  0
  3  4  2  0  0  0
  4  5  1  0  0  0
  4  6  1  0  0  0
  6 27  1  0  0  0
 27 29  1  0  0  0
 29 30  2  0  0  0
 30 31  1  0  0  0
 31 32  2  0  0  0
 32 33  1  0  0  0
 33 34  2  0  0  0
 34 35  1  0  0  0
 35 36  2  0  0  0
 35 37  2  0  0  0
 35 38  1  0  0  0
 38 39  1  0  0  0
 38 40  1  0  0  0
  6  7  2  0  0  0
 12 16  1  0  0  0
 16 17  1  0  0  0
 17 18  1  0  0  0
 18 19  1  0  0  0
 19 20  1  0  0  0
 19 21  1  0  0  0
 21 22  1  0  0  0
 15 10  1  0  0  0
  7  1  1  0  0  0
 22 16  1  0  0  0
 34 29  1  0  0  0
  8  9  1  0  0  0
 27 28  1  0  0  0
 20 23  1  0  0  0
 20 24  1  0  0  0
M  END
> <minimizedAffinity>
-5.97879

> <CNNscore>
0.1891495734

> <CNNaffinity>
6.1877298355

> <CNN_VS>
1.1704064608

> <CNNaffinity_variance>
0.3381533027

$$$$
[H]c1nc(N([H])c2c([H])c([H])c(N3C([H])([H])C([H])([H])C([H])(N([H])[H])C([H])([H])C3([H])[H])c([H])c2OC([H])([H])[H])nc(N([H])c2c([H])c([H])c([H])c([H])c2S(=O)(=O)C([H])(C([H])([H])[H])C([H])([H])[H])c1Cl


 40 43  0  0  0  0  0  0  0  0999 V2000
   32.7245  -19.1675   35.7704 C   0  0  0  0  0  0  0  0  0  0  0  0
   31.5200  -18.8810   35.2793 N   0  0  0  0  0  0  0  0  0  0  0  0
   30.5217  -19.7621   35.2108 C   0  0  0  0  0  0  0  0  0  0  0  0
   30.6910  -21.0420   35.6551 C   0  0  0  0  0  0  0  0  0  0  0  0
   29.4033  -22.2357   35.5923 Cl  0  0  0  0  0  0  0  0  0  0  0  0
   31.9545  -21.3923   36.1851 C   0  0  0  0  0  0  0  0  0  0  0  0
   32.8758  -20.4413   36.2067 N   0  0  0  0  0  0  0  0  0  0  0  0
   33.8132  -18.3059   35.8754 N   0  0  0  0  0  0  0  0  0  0  0  0
   33.6062  -17.3232   36.2681 H   0  0  0  0  0  0  0  0  0  0  0  0
   36.1077  -18.6668   36.5603 C   0  0  0  0  0  0  0  0  0  0  0  0
   37.4485  -18.8892   36.3310 C   0  0  0  0  0  0  0  0  0  0  0  0
   37.9370  -18.9887   35.0505 C   0  0  0  0  0  0  0  0  0  0  0  0
   37.0284  -18.8560   34.0329 C   0  0  0  0  0  0  0  0  0  0  0  0
   35.6644  -18.6299   34.2635 C   0  0  0  0  0  0  0  0  0  0  0  0
   35.1647  -18.5285   35.5420 C   0  0  0  0  0  0  0  0  0  0  0  0
   39.3210  -19.2055   34.8022 N   0  0  0  0  0  0  0  0  0  0  0  0
   39.9886  -18.5792   33.6494 C   0  0  0  0  0  0  0  0  0  0  0  0
   41.1009  -19.4795   33.1596 C   0  0  0  0  0  0  0  0  0  0  0  0
   40.8320  -20.9465   33.3930 C   0  0  0  0  0  0  0  0  0  0  0  0
   42.0078  -21.6769   32.9610 N   0  0  0  0  0  0  0  0  0  0  0  0
   40.6126  -21.2562   34.8577 C   0  0  0  0  0  0  0  0  0  0  0  0
   40.1880  -20.0193   35.6218 C   0  0  0  0  0  0  0  0  0  0  0  0
   42.8908  -21.2391   33.3328 H   0  0  0  0  0  0  0  0  0  0  0  0
   42.0312  -21.8557   31.9486 H   0  0  0  0  0  0  0  0  0  0  0  0
   35.5072  -19.6758   38.7290 C   0  0  0  0  0  0  0  0  0  0  0  0
   35.6274  -18.5683   37.8818 O   0  0  0  0  0  0  0  0  0  0  0  0
   32.1353  -22.7256   36.6033 N   0  0  0  0  0  0  0  0  0  0  0  0
   32.2844  -23.4817   35.8568 H   0  0  0  0  0  0  0  0  0  0  0  0
   32.1038  -23.1911   37.9245 C   0  0  0  0  0  0  0  0  0  0  0  0
   30.9562  -23.0883   38.6883 C   0  0  0  0  0  0  0  0  0  0  0  0
   30.8932  -23.6597   39.9481 C   0  0  0  0  0  0  0  0  0  0  0  0
   31.9481  -24.3455   40.4916 C   0  0  0  0  0  0  0  0  0  0  0  0
   33.0771  -24.4401   39.7288 C   0  0  0  0  0  0  0  0  0  0  0  0
   33.1888  -23.8782   38.4529 C   0  0  0  0  0  0  0  0  0  0  0  0
   34.7458  -24.0060   37.6949 S   0  0  0  0  0  0  0  0  0  0  0  0
   34.6057  -24.8934   36.4466 O   0  0  0  0  0  0  0  0  0  0  0  0
   35.2152  -22.6840   37.1164 O   0  0  0  0  0  0  0  0  0  0  0  0
   35.9759  -24.7672   38.6778 C   0  0  0  0  0  0  0  0  0  0  0  0
   36.8469  -25.7019   37.8163 C   0  0  0  0  0  0  0  0  0  0  0  0
   36.8822  -23.8261   39.3724 C   0  0  0  0  0  0  0  0  0  0  0  0
 25 26  1  0  0  0
 26 10  1  0  0  0
 10 11  2  0  0  0
 11 12  1  0  0  0
 12 13  2  0  0  0
 13 14  1  0  0  0
 14 15  2  0  0  0
 15  8  1  0  0  0
  8  1  1  0  0  0
  1  2  2  0  0  0
  2  3  1  0  0  0
  3  4  2  0  0  0
  4  5  1  0  0  0
  4  6  1  0  0  0
  6 27  1  0  0  0
 27 29  1  0  0  0
 29 30  2  0  0  0
 30 31  1  0  0  0
 31 32  2  0  0  0
 32 33  1  0  0  0
 33 34  2  0  0  0
 34 35  1  0  0  0
 35 36  2  0  0  0
 35 37  2  0  0  0
 35 38  1  0  0  0
 38 39  1  0  0  0
 38 40  1  0  0  0
  6  7  2  0  0  0
 12 16  1  0  0  0
 16 17  1  0  0  0
 17 18  1  0  0  0
 18 19  1  0  0  0
 19 20  1  0  0  0
 19 21  1  0  0  0
 21 22  1  0  0  0
 15 10  1  0  0  0
  7  1  1  0  0  0
 22 16  1  0  0  0
 34 29  1  0  0  0
  8  9  1  0  0  0
 27 28  1  0  0  0
 20 23  1  0  0  0
 20 24  1  0  0  0
M  END
> <minimizedAffinity>
-5.29773

> <CNNscore>
0.1872673631

> <CNNaffinity>
5.6740870476

> <CNN_VS>
1.0625712872

> <CNNaffinity_variance>
0.2745060325

$$$$
[H]c1nc(N([H])c2c([H])c([H])c(C(=O)N([H])[H])c([H])c2OC([H])([H])[H])nc(N([H])c2c([H])c([H])c([H])c([H])c2S(=O)(=O)C([H])(C([H])([H])[H])C([H])([H])[H])c1Cl


 36 38  0  0  0  0  0  0  0  0999 V2000
   37.2815  -17.9746   36.4543 C   0  0  0  0  0  0  0  0  0  0  0  0
   36.3880  -18.8143   36.9802 N   0  0  0  0  0  0  0  0  0  0  0  0
   36.7496  -19.9656   37.5592 C   0  0  0  0  0  0  0  0  0  0  0  0
   38.0784  -20.3182   37.6274 C   0  0  0  0  0  0  0  0  0  0  0  0
   38.5516  -21.8408   38.3936 Cl  0  0  0  0  0  0  0  0  0  0  0  0
   39.0505  -19.4610   37.0850 C   0  0  0  0  0  0  0  0  0  0  0  0
   38.6018  -18.3460   36.5333 N   0  0  0  0  0  0  0  0  0  0  0  0
   36.9220  -16.7732   35.8485 N   0  0  0  0  0  0  0  0  0  0  0  0
   37.5135  -16.5061   34.9878 H   0  0  0  0  0  0  0  0  0  0  0  0
   36.2378  -14.8582   37.1145 C   0  0  0  0  0  0  0  0  0  0  0  0
   35.3182  -13.9462   37.5358 C   0  0  0  0  0  0  0  0  0  0  0  0
   34.0034  -13.9792   37.1081 C   0  0  0  0  0  0  0  0  0  0  0  0
   33.6536  -14.9727   36.2355 C   0  0  0  0  0  0  0  0  0  0  0  0
   34.5974  -15.9149   35.7985 C   0  0  0  0  0  0  0  0  0  0  0  0
   35.9086  -15.8936   36.2161 C   0  0  0  0  0  0  0  0  0  0  0  0
   33.0470  -12.9918   37.5762 C   0  0  0  0  0  0  0  0  0  0  0  0
   32.1283  -12.4146   36.6837 N   0  0  0  0  0  0  0  0  0  0  0  0
   33.0530  -12.6644   38.7787 O   0  0  0  0  0  0  0  0  0  0  0  0
   31.0974  -12.4867   36.9048 H   0  0  0  0  0  0  0  0  0  0  0  0
   32.3676  -11.9113   35.8058 H   0  0  0  0  0  0  0  0  0  0  0  0
   38.1574  -13.5391   37.7016 C   0  0  0  0  0  0  0  0  0  0  0  0
   37.5360  -14.7835   37.5692 O   0  0  0  0  0  0  0  0  0  0  0  0
   40.3893  -19.8786   37.1883 N   0  0  0  0  0  0  0  0  0  0  0  0
   40.5498  -20.9168   37.3796 H   0  0  0  0  0  0  0  0  0  0  0  0
   41.5685  -19.1205   37.0728 C   0  0  0  0  0  0  0  0  0  0  0  0
   41.9083  -18.3444   35.9843 C   0  0  0  0  0  0  0  0  0  0  0  0
   43.1029  -17.6249   35.9470 C   0  0  0  0  0  0  0  0  0  0  0  0
   43.9948  -17.6508   36.9804 C   0  0  0  0  0  0  0  0  0  0  0  0
   43.6792  -18.4147   38.0719 C   0  0  0  0  0  0  0  0  0  0  0  0
   42.4940  -19.1391   38.1303 C   0  0  0  0  0  0  0  0  0  0  0  0
   42.1723  -20.1008   39.5410 S   0  0  0  0  0  0  0  0  0  0  0  0
   42.2820  -21.5771   39.2743 O   0  0  0  0  0  0  0  0  0  0  0  0
   40.7889  -19.8437   40.1216 O   0  0  0  0  0  0  0  0  0  0  0  0
   43.2954  -19.6229   40.8451 C   0  0  0  0  0  0  0  0  0  0  0  0
   44.0036  -20.8667   41.3915 C   0  0  0  0  0  0  0  0  0  0  0  0
   42.5301  -19.0610   42.0102 C   0  0  0  0  0  0  0  0  0  0  0  0
 21 22  1  0  0  0
 22 10  1  0  0  0
 10 11  2  0  0  0
 11 12  1  0  0  0
 12 13  2  0  0  0
 13 14  1  0  0  0
 14 15  2  0  0  0
 15  8  1  0  0  0
  8  1  1  0  0  0
  1  2  2  0  0  0
  2  3  1  0  0  0
  3  4  2  0  0  0
  4  5  1  0  0  0
  4  6  1  0  0  0
  6 23  1  0  0  0
 23 25  1  0  0  0
 25 26  2  0  0  0
 26 27  1  0  0  0
 27 28  2  0  0  0
 28 29  1  0  0  0
 29 30  2  0  0  0
 30 31  1  0  0  0
 31 32  2  0  0  0
 31 33  2  0  0  0
 31 34  1  0  0  0
 34 35  1  0  0  0
 34 36  1  0  0  0
  6  7  2  0  0  0
 12 16  1  0  0  0
 16 17  1  0  0  0
 16 18  2  0  0  0
 15 10  1  0  0  0
  7  1  1  0  0  0
 30 25  1  0  0  0
  8  9  1  0  0  0
 23 24  1  0  0  0
 17 19  1  0  0  0
 17 20  1  0  0  0
M  END
> <minimizedAffinity>
-7.30027

> <CNNscore>
0.5196741819

> <CNNaffinity>
5.9232292175

> <CNN_VS>
3.0781493187

> <CNNaffinity_variance>
0.3126232028

$$$$
[H]c1nc(N([H])c2c([H])c([H])c(C(=O)N([H])[H])c([H])c2OC([H])([H])[H])nc(N([H])c2c([H])c([H])c([H])c([H])c2S(=O)(=O)C([H])(C([H])([H])[H])C([H])([H])[H])c1Cl


 36 38  0  0  0  0  0  0  0  0999 V2000
   33.1084  -12.8757   36.7930 C   0  0  0  0  0  0  0  0  0  0  0  0
   34.1151  -12.0323   37.0282 N   0  0  0  0  0  0  0  0  0  0  0  0
   35.3814  -12.4512   37.1413 C   0  0  0  0  0  0  0  0  0  0  0  0
   35.6815  -13.7887   37.0153 C   0  0  0  0  0  0  0  0  0  0  0  0
   37.3565  -14.3376   37.1656 Cl  0  0  0  0  0  0  0  0  0  0  0  0
   34.6493  -14.7091   36.7675 C   0  0  0  0  0  0  0  0  0  0  0  0
   33.4303  -14.2056   36.6708 N   0  0  0  0  0  0  0  0  0  0  0  0
   31.7858  -12.4563   36.6726 N   0  0  0  0  0  0  0  0  0  0  0  0
   31.4084  -12.4351   35.6631 H   0  0  0  0  0  0  0  0  0  0  0  0
   30.5144  -10.7163   37.7184 C   0  0  0  0  0  0  0  0  0  0  0  0
   29.6617  -10.2372   38.6661 C   0  0  0  0  0  0  0  0  0  0  0  0
   29.1311  -11.0483   39.6526 C   0  0  0  0  0  0  0  0  0  0  0  0
   29.4971  -12.3662   39.6438 C   0  0  0  0  0  0  0  0  0  0  0  0
   30.3755  -12.8646   38.6694 C   0  0  0  0  0  0  0  0  0  0  0  0
   30.9106  -12.0687   37.6824 C   0  0  0  0  0  0  0  0  0  0  0  0
   28.2241  -10.5065   40.6491 C   0  0  0  0  0  0  0  0  0  0  0  0
   28.5451   -9.3209   41.3311 N   0  0  0  0  0  0  0  0  0  0  0  0
   27.1592  -11.1073   40.8901 O   0  0  0  0  0  0  0  0  0  0  0  0
   27.8608   -8.5165   41.2929 H   0  0  0  0  0  0  0  0  0  0  0  0
   29.4100   -9.1522   41.8832 H   0  0  0  0  0  0  0  0  0  0  0  0
   31.8703   -8.8250   37.1232 C   0  0  0  0  0  0  0  0  0  0  0  0
   31.0165   -9.8683   36.7559 O   0  0  0  0  0  0  0  0  0  0  0  0
   35.0226  -16.0596   36.6481 N   0  0  0  0  0  0  0  0  0  0  0  0
   35.7902  -16.4005   37.3073 H   0  0  0  0  0  0  0  0  0  0  0  0
   34.5253  -17.0458   35.7769 C   0  0  0  0  0  0  0  0  0  0  0  0
   33.5130  -16.8554   34.8595 C   0  0  0  0  0  0  0  0  0  0  0  0
   33.0742  -17.8905   34.0336 C   0  0  0  0  0  0  0  0  0  0  0  0
   33.6202  -19.1405   34.0894 C   0  0  0  0  0  0  0  0  0  0  0  0
   34.6266  -19.3536   34.9929 C   0  0  0  0  0  0  0  0  0  0  0  0
   35.0798  -18.3363   35.8250 C   0  0  0  0  0  0  0  0  0  0  0  0
   36.3477  -18.6884   36.9594 S   0  0  0  0  0  0  0  0  0  0  0  0
   35.8890  -18.5973   38.3891 O   0  0  0  0  0  0  0  0  0  0  0  0
   37.5454  -17.7619   36.8047 O   0  0  0  0  0  0  0  0  0  0  0  0
   37.0009  -20.3163   36.6221 C   0  0  0  0  0  0  0  0  0  0  0  0
   37.3719  -21.0019   37.9410 C   0  0  0  0  0  0  0  0  0  0  0  0
   38.2897  -20.2107   35.8562 C   0  0  0  0  0  0  0  0  0  0  0  0
 21 22  1  0  0  0
 22 10  1  0  0  0
 10 11  2  0  0  0
 11 12  1  0  0  0
 12 13  2  0  0  0
 13 14  1  0  0  0
 14 15  2  0  0  0
 15  8  1  0  0  0
  8  1  1  0  0  0
  1  2  2  0  0  0
  2  3  1  0  0  0
  3  4  2  0  0  0
  4  5  1  0  0  0
  4  6  1  0  0  0
  6 23  1  0  0  0
 23 25  1  0  0  0
 25 26  2  0  0  0
 26 27  1  0  0  0
 27 28  2  0  0  0
 28 29  1  0  0  0
 29 30  2  0  0  0
 30 31  1  0  0  0
 31 32  2  0  0  0
 31 33  2  0  0  0
 31 34  1  0  0  0
 34 35  1  0  0  0
 34 36  1  0  0  0
  6  7  2  0  0  0
 12 16  1  0  0  0
 16 17  1  0  0  0
 16 18  2  0  0  0
 15 10  1  0  0  0
  7  1  1  0  0  0
 30 25  1  0  0  0
  8  9  1  0  0  0
 23 24  1  0  0  0
 17 19  1  0  0  0
 17 20  1  0  0  0
M  END
> <minimizedAffinity>
-7.39321

> <CNNscore>
0.4730249941

> <CNNaffinity>
6.7858953476

> <CNN_VS>
3.2098979950

> <CNNaffinity_variance>
0.0917314962

$$$$
[H]c1nc(N([H])c2c([H])c([H])c(C(=O)N([H])[H])c([H])c2OC([H])([H])[H])nc(N([H])c2c([H])c([H])c([H])c([H])c2S(=O)(=O)C([H])(C([H])([H])[H])C([H])([H])[H])c1Cl


 36 38  0  0  0  0  0  0  0  0999 V2000
   33.0718  -17.9345   35.3043 C   0  0  0  0  0  0  0  0  0  0  0  0
   32.1580  -18.4056   34.4538 N   0  0  0  0  0  0  0  0  0  0  0  0
   31.9513  -19.7175   34.2876 C   0  0  0  0  0  0  0  0  0  0  0  0
   32.6912  -20.6307   35.0043 C   0  0  0  0  0  0  0  0  0  0  0  0
   32.4145  -22.3636   34.7813 Cl  0  0  0  0  0  0  0  0  0  0  0  0
   33.6636  -20.1749   35.9102 C   0  0  0  0  0  0  0  0  0  0  0  0
   33.7987  -18.8631   36.0090 N   0  0  0  0  0  0  0  0  0  0  0  0
   33.2992  -16.5730   35.4889 N   0  0  0  0  0  0  0  0  0  0  0  0
   32.4800  -15.9346   35.1999 H   0  0  0  0  0  0  0  0  0  0  0  0
   34.3869  -14.5555   36.1846 C   0  0  0  0  0  0  0  0  0  0  0  0
   35.4471  -13.8535   36.6724 C   0  0  0  0  0  0  0  0  0  0  0  0
   36.6397  -14.4668   37.0102 C   0  0  0  0  0  0  0  0  0  0  0  0
   36.7191  -15.8210   36.8352 C   0  0  0  0  0  0  0  0  0  0  0  0
   35.6294  -16.5488   36.3328 C   0  0  0  0  0  0  0  0  0  0  0  0
   34.4372  -15.9512   35.9928 C   0  0  0  0  0  0  0  0  0  0  0  0
   37.7519  -13.6896   37.5281 C   0  0  0  0  0  0  0  0  0  0  0  0
   38.3740  -12.7187   36.7256 N   0  0  0  0  0  0  0  0  0  0  0  0
   38.1458  -13.8962   38.6923 O   0  0  0  0  0  0  0  0  0  0  0  0
   38.4287  -11.7267   37.0859 H   0  0  0  0  0  0  0  0  0  0  0  0
   38.7962  -12.8830   35.7896 H   0  0  0  0  0  0  0  0  0  0  0  0
   32.6839  -12.9565   36.7440 C   0  0  0  0  0  0  0  0  0  0  0  0
   33.2194  -13.8990   35.8625 O   0  0  0  0  0  0  0  0  0  0  0  0
   34.3837  -21.1583   36.6114 N   0  0  0  0  0  0  0  0  0  0  0  0
   33.9297  -22.1224   36.6787 H   0  0  0  0  0  0  0  0  0  0  0  0
   35.6353  -21.0606   37.2460 C   0  0  0  0  0  0  0  0  0  0  0  0
   36.7599  -20.4819   36.6957 C   0  0  0  0  0  0  0  0  0  0  0  0
   37.9676  -20.4300   37.3921 C   0  0  0  0  0  0  0  0  0  0  0  0
   38.1000  -20.9468   38.6488 C   0  0  0  0  0  0  0  0  0  0  0  0
   36.9969  -21.5268   39.2158 C   0  0  0  0  0  0  0  0  0  0  0  0
   35.7836  -21.5888   38.5400 C   0  0  0  0  0  0  0  0  0  0  0  0
   34.4335  -22.3577   39.3174 S   0  0  0  0  0  0  0  0  0  0  0  0
   33.9062  -23.5313   38.5380 O   0  0  0  0  0  0  0  0  0  0  0  0
   33.2701  -21.4038   39.5485 O   0  0  0  0  0  0  0  0  0  0  0  0
   34.9168  -22.8721   40.9583 C   0  0  0  0  0  0  0  0  0  0  0  0
   34.5338  -24.3407   41.1675 C   0  0  0  0  0  0  0  0  0  0  0  0
   34.1370  -22.1099   41.9927 C   0  0  0  0  0  0  0  0  0  0  0  0
 21 22  1  0  0  0
 22 10  1  0  0  0
 10 11  2  0  0  0
 11 12  1  0  0  0
 12 13  2  0  0  0
 13 14  1  0  0  0
 14 15  2  0  0  0
 15  8  1  0  0  0
  8  1  1  0  0  0
  1  2  2  0  0  0
  2  3  1  0  0  0
  3  4  2  0  0  0
  4  5  1  0  0  0
  4  6  1  0  0  0
  6 23  1  0  0  0
 23 25  1  0  0  0
 25 26  2  0  0  0
 26 27  1  0  0  0
 27 28  2  0  0  0
 28 29  1  0  0  0
 29 30  2  0  0  0
 30 31  1  0  0  0
 31 32  2  0  0  0
 31 33  2  0  0  0
 31 34  1  0  0  0
 34 35  1  0  0  0
 34 36  1  0  0  0
  6  7  2  0  0  0
 12 16  1  0  0  0
 16 17  1  0  0  0
 16 18  2  0  0  0
 15 10  1  0  0  0
  7  1  1  0  0  0
 30 25  1  0  0  0
  8  9  1  0  0  0
 23 24  1  0  0  0
 17 19  1  0  0  0
 17 20  1  0  0  0
M  END
> <minimizedAffinity>
-6.33407

> <CNNscore>
0.3928214312

> <CNNaffinity>
5.9981641769

> <CNN_VS>
2.3562073708

> <CNNaffinity_variance>
0.1252532899

$$$$
[H]c1nc(N([H])c2c([H])c([H])c(C(=O)N([H])[H])c([H])c2OC([H])([H])[H])nc(N([H])c2c([H])c([H])c([H])c([H])c2S(=O)(=O)C([H])(C([H])([H])[H])C([H])([H])[H])c1Cl


 36 38  0  0  0  0  0  0  0  0999 V2000
   33.4397  -13.0079   36.8227 C   0  0  0  0  0  0  0  0  0  0  0  0
   34.5687  -12.4704   37.2882 N   0  0  0  0  0  0  0  0  0  0  0  0
   35.6649  -13.2045   37.5141 C   0  0  0  0  0  0  0  0  0  0  0  0
   35.6537  -14.5586   37.2670 C   0  0  0  0  0  0  0  0  0  0  0  0
   37.1049  -15.5248   37.5672 Cl  0  0  0  0  0  0  0  0  0  0  0  0
   34.4840  -15.1629   36.7764 C   0  0  0  0  0  0  0  0  0  0  0  0
   33.4506  -14.3606   36.5831 N   0  0  0  0  0  0  0  0  0  0  0  0
   32.2908  -12.2584   36.5823 N   0  0  0  0  0  0  0  0  0  0  0  0
   32.2035  -11.8741   35.5789 H   0  0  0  0  0  0  0  0  0  0  0  0
   30.7726  -10.6306   37.4673 C   0  0  0  0  0  0  0  0  0  0  0  0
   29.7680  -10.2307   38.2952 C   0  0  0  0  0  0  0  0  0  0  0  0
   29.1648  -11.0976   39.1883 C   0  0  0  0  0  0  0  0  0  0  0  0
   29.6181  -12.3879   39.2117 C   0  0  0  0  0  0  0  0  0  0  0  0
   30.6531  -12.8048   38.3605 C   0  0  0  0  0  0  0  0  0  0  0  0
   31.2618  -11.9528   37.4674 C   0  0  0  0  0  0  0  0  0  0  0  0
   28.0956  -10.6399   40.0580 C   0  0  0  0  0  0  0  0  0  0  0  0
   27.2851  -11.5668   40.7345 N   0  0  0  0  0  0  0  0  0  0  0  0
   27.9077   -9.4155   40.1950 O   0  0  0  0  0  0  0  0  0  0  0  0
   27.2164  -11.5023   41.7871 H   0  0  0  0  0  0  0  0  0  0  0  0
   26.7326  -12.3284   40.2918 H   0  0  0  0  0  0  0  0  0  0  0  0
   32.1089   -8.6710   37.0880 C   0  0  0  0  0  0  0  0  0  0  0  0
   31.3418   -9.7294   36.5946 O   0  0  0  0  0  0  0  0  0  0  0  0
   34.5388  -16.5486   36.5438 N   0  0  0  0  0  0  0  0  0  0  0  0
   33.9526  -17.1627   37.1913 H   0  0  0  0  0  0  0  0  0  0  0  0
   35.2608  -17.2583   35.5672 C   0  0  0  0  0  0  0  0  0  0  0  0
   36.4211  -16.8191   34.9642 C   0  0  0  0  0  0  0  0  0  0  0  0
   37.0749  -17.5842   33.9981 C   0  0  0  0  0  0  0  0  0  0  0  0
   36.6032  -18.8019   33.5999 C   0  0  0  0  0  0  0  0  0  0  0  0
   35.4525  -19.2588   34.1843 C   0  0  0  0  0  0  0  0  0  0  0  0
   34.7853  -18.5131   35.1494 C   0  0  0  0  0  0  0  0  0  0  0  0
   33.3201  -19.1507   35.8315 S   0  0  0  0  0  0  0  0  0  0  0  0
   32.2351  -18.1153   35.9469 O   0  0  0  0  0  0  0  0  0  0  0  0
   33.5304  -19.7474   37.2159 O   0  0  0  0  0  0  0  0  0  0  0  0
   32.7602  -20.5252   34.8375 C   0  0  0  0  0  0  0  0  0  0  0  0
   31.2718  -20.3526   34.5183 C   0  0  0  0  0  0  0  0  0  0  0  0
   32.8497  -21.8042   35.6216 C   0  0  0  0  0  0  0  0  0  0  0  0
 21 22  1  0  0  0
 22 10  1  0  0  0
 10 11  2  0  0  0
 11 12  1  0  0  0
 12 13  2  0  0  0
 13 14  1  0  0  0
 14 15  2  0  0  0
 15  8  1  0  0  0
  8  1  1  0  0  0
  1  2  2  0  0  0
  2  3  1  0  0  0
  3  4  2  0  0  0
  4  5  1  0  0  0
  4  6  1  0  0  0
  6 23  1  0  0  0
 23 25  1  0  0  0
 25 26  2  0  0  0
 26 27  1  0  0  0
 27 28  2  0  0  0
 28 29  1  0  0  0
 29 30  2  0  0  0
 30 31  1  0  0  0
 31 32  2  0  0  0
 31 33  2  0  0  0
 31 34  1  0  0  0
 34 35  1  0  0  0
 34 36  1  0  0  0
  6  7  2  0  0  0
 12 16  1  0  0  0
 16 17  1  0  0  0
 16 18  2  0  0  0
 15 10  1  0  0  0
  7  1  1  0  0  0
 30 25  1  0  0  0
  8  9  1  0  0  0
 23 24  1  0  0  0
 17 19  1  0  0  0
 17 20  1  0  0  0
M  END
> <minimizedAffinity>
-7.23333

> <CNNscore>
0.3610831499

> <CNNaffinity>
6.7014183998

> <CNN_VS>
2.4197692871

> <CNNaffinity_variance>
0.0992732719

$$$$
[H]c1nc(N([H])c2c([H])c([H])c(C(=O)N([H])[H])c([H])c2OC([H])([H])[H])nc(N([H])c2c([H])c([H])c([H])c([H])c2S(=O)(=O)C([H])(C([H])([H])[H])C([H])([H])[H])c1Cl


 36 38  0  0  0  0  0  0  0  0999 V2000
   37.4043  -17.9032   36.4333 C   0  0  0  0  0  0  0  0  0  0  0  0
   36.5345  -18.7369   37.0065 N   0  0  0  0  0  0  0  0  0  0  0  0
   36.9170  -19.8971   37.5536 C   0  0  0  0  0  0  0  0  0  0  0  0
   38.2432  -20.2655   37.5376 C   0  0  0  0  0  0  0  0  0  0  0  0
   38.7440  -21.7998   38.2618 Cl  0  0  0  0  0  0  0  0  0  0  0  0
   39.1906  -19.4150   36.9433 C   0  0  0  0  0  0  0  0  0  0  0  0
   38.7224  -18.2905   36.4285 N   0  0  0  0  0  0  0  0  0  0  0  0
   37.0228  -16.6927   35.8599 N   0  0  0  0  0  0  0  0  0  0  0  0
   37.6256  -16.3792   35.0229 H   0  0  0  0  0  0  0  0  0  0  0  0
   36.2606  -14.8218   37.1469 C   0  0  0  0  0  0  0  0  0  0  0  0
   35.3055  -13.9502   37.5744 C   0  0  0  0  0  0  0  0  0  0  0  0
   33.9955  -14.0257   37.1376 C   0  0  0  0  0  0  0  0  0  0  0  0
   33.6879  -15.0194   36.2494 C   0  0  0  0  0  0  0  0  0  0  0  0
   34.6685  -15.9200   35.8060 C   0  0  0  0  0  0  0  0  0  0  0  0
   35.9754  -15.8562   36.2325 C   0  0  0  0  0  0  0  0  0  0  0  0
   33.0003  -13.0807   37.6126 C   0  0  0  0  0  0  0  0  0  0  0  0
   32.0220  -12.5801   36.7374 N   0  0  0  0  0  0  0  0  0  0  0  0
   33.0268  -12.7207   38.8055 O   0  0  0  0  0  0  0  0  0  0  0  0
   31.0046  -12.7034   36.9951 H   0  0  0  0  0  0  0  0  0  0  0  0
   32.2039  -12.0884   35.8394 H   0  0  0  0  0  0  0  0  0  0  0  0
   38.1992  -13.4678   37.5692 C   0  0  0  0  0  0  0  0  0  0  0  0
   37.5524  -14.7055   37.6112 O   0  0  0  0  0  0  0  0  0  0  0  0
   40.5280  -19.8489   36.9613 N   0  0  0  0  0  0  0  0  0  0  0  0
   40.7491  -20.6814   37.5923 H   0  0  0  0  0  0  0  0  0  0  0  0
   41.6363  -19.3431   36.2581 C   0  0  0  0  0  0  0  0  0  0  0  0
   41.6260  -18.9574   34.9338 C   0  0  0  0  0  0  0  0  0  0  0  0
   42.7733  -18.4690   34.3082 C   0  0  0  0  0  0  0  0  0  0  0  0
   43.9613  -18.3478   34.9700 C   0  0  0  0  0  0  0  0  0  0  0  0
   43.9960  -18.7248   36.2858 C   0  0  0  0  0  0  0  0  0  0  0  0
   42.8645  -19.2134   36.9289 C   0  0  0  0  0  0  0  0  0  0  0  0
   42.9917  -19.6897   38.5949 S   0  0  0  0  0  0  0  0  0  0  0  0
   41.8558  -19.1726   39.4346 O   0  0  0  0  0  0  0  0  0  0  0  0
   44.2873  -19.2195   39.2408 O   0  0  0  0  0  0  0  0  0  0  0  0
   43.0704  -21.4716   38.6910 C   0  0  0  0  0  0  0  0  0  0  0  0
   43.9792  -21.8813   39.8543 C   0  0  0  0  0  0  0  0  0  0  0  0
   43.7287  -22.0299   37.4606 C   0  0  0  0  0  0  0  0  0  0  0  0
 21 22  1  0  0  0
 22 10  1  0  0  0
 10 11  2  0  0  0
 11 12  1  0  0  0
 12 13  2  0  0  0
 13 14  1  0  0  0
 14 15  2  0  0  0
 15  8  1  0  0  0
  8  1  1  0  0  0
  1  2  2  0  0  0
  2  3  1  0  0  0
  3  4  2  0  0  0
  4  5  1  0  0  0
  4  6  1  0  0  0
  6 23  1  0  0  0
 23 25  1  0  0  0
 25 26  2  0  0  0
 26 27  1  0  0  0
 27 28  2  0  0  0
 28 29  1  0  0  0
 29 30  2  0  0  0
 30 31  1  0  0  0
 31 32  2  0  0  0
 31 33  2  0  0  0
 31 34  1  0  0  0
 34 35  1  0  0  0
 34 36  1  0  0  0
  6  7  2  0  0  0
 12 16  1  0  0  0
 16 17  1  0  0  0
 16 18  2  0  0  0
 15 10  1  0  0  0
  7  1  1  0  0  0
 30 25  1  0  0  0
  8  9  1  0  0  0
 23 24  1  0  0  0
 17 19  1  0  0  0
 17 20  1  0  0  0
M  END
> <minimizedAffinity>
-7.12899

> <CNNscore>
0.3033477366

> <CNNaffinity>
5.8668169975

> <CNN_VS>
1.7796856165

> <CNNaffinity_variance>
0.1937855184

$$$$
[H]c1nc(N([H])c2c([H])c([H])c(C(=O)N([H])[H])c([H])c2OC([H])([H])[H])nc(N([H])c2c([H])c([H])c([H])c([H])c2S(=O)(=O)C([H])(C([H])([H])[H])C([H])([H])[H])c1Cl


 36 38  0  0  0  0  0  0  0  0999 V2000
   32.9735  -19.2351   35.1753 C   0  0  0  0  0  0  0  0  0  0  0  0
   31.8955  -18.7098   34.5905 N   0  0  0  0  0  0  0  0  0  0  0  0
   30.6730  -19.2292   34.7561 C   0  0  0  0  0  0  0  0  0  0  0  0
   30.4950  -20.3400   35.5494 C   0  0  0  0  0  0  0  0  0  0  0  0
   28.8775  -21.0230   35.7654 Cl  0  0  0  0  0  0  0  0  0  0  0  0
   31.6053  -20.9231   36.1828 C   0  0  0  0  0  0  0  0  0  0  0  0
   32.7731  -20.3430   35.9625 N   0  0  0  0  0  0  0  0  0  0  0  0
   34.2519  -18.7069   35.0134 N   0  0  0  0  0  0  0  0  0  0  0  0
   34.9176  -19.3091   34.4163 H   0  0  0  0  0  0  0  0  0  0  0  0
   36.0868  -17.5273   36.0030 C   0  0  0  0  0  0  0  0  0  0  0  0
   36.6781  -16.4146   36.5199 C   0  0  0  0  0  0  0  0  0  0  0  0
   36.0148  -15.2039   36.6045 C   0  0  0  0  0  0  0  0  0  0  0  0
   34.7272  -15.1619   36.1450 C   0  0  0  0  0  0  0  0  0  0  0  0
   34.1136  -16.3057   35.6116 C   0  0  0  0  0  0  0  0  0  0  0  0
   34.7619  -17.5164   35.5215 C   0  0  0  0  0  0  0  0  0  0  0  0
   36.6736  -14.0355   37.1612 C   0  0  0  0  0  0  0  0  0  0  0  0
   36.4002  -12.7557   36.6501 N   0  0  0  0  0  0  0  0  0  0  0  0
   37.4834  -14.1842   38.0967 O   0  0  0  0  0  0  0  0  0  0  0  0
   36.0595  -12.0093   37.3161 H   0  0  0  0  0  0  0  0  0  0  0  0
   36.5024  -12.4628   35.6576 H   0  0  0  0  0  0  0  0  0  0  0  0
   37.9902  -18.7711   35.2285 C   0  0  0  0  0  0  0  0  0  0  0  0
   36.7892  -18.7106   35.9399 O   0  0  0  0  0  0  0  0  0  0  0  0
   31.3556  -22.0542   36.9800 N   0  0  0  0  0  0  0  0  0  0  0  0
   31.5508  -21.9518   38.0248 H   0  0  0  0  0  0  0  0  0  0  0  0
   30.8765  -23.3212   36.6005 C   0  0  0  0  0  0  0  0  0  0  0  0
   31.1308  -23.9352   35.3918 C   0  0  0  0  0  0  0  0  0  0  0  0
   30.6121  -25.1949   35.0912 C   0  0  0  0  0  0  0  0  0  0  0  0
   29.8289  -25.8831   35.9726 C   0  0  0  0  0  0  0  0  0  0  0  0
   29.5625  -25.2934   37.1792 C   0  0  0  0  0  0  0  0  0  0  0  0
   30.0697  -24.0393   37.4997 C   0  0  0  0  0  0  0  0  0  0  0  0
   29.6720  -23.3477   39.0430 S   0  0  0  0  0  0  0  0  0  0  0  0
   28.7896  -22.1351   38.9255 O   0  0  0  0  0  0  0  0  0  0  0  0
   30.9050  -22.9393   39.8366 O   0  0  0  0  0  0  0  0  0  0  0  0
   28.8845  -24.5897   40.0568 C   0  0  0  0  0  0  0  0  0  0  0  0
   27.9366  -23.9122   41.0516 C   0  0  0  0  0  0  0  0  0  0  0  0
   29.9069  -25.2944   40.9034 C   0  0  0  0  0  0  0  0  0  0  0  0
 21 22  1  0  0  0
 22 10  1  0  0  0
 10 11  2  0  0  0
 11 12  1  0  0  0
 12 13  2  0  0  0
 13 14  1  0  0  0
 14 15  2  0  0  0
 15  8  1  0  0  0
  8  1  1  0  0  0
  1  2  2  0  0  0
  2  3  1  0  0  0
  3  4  2  0  0  0
  4  5  1  0  0  0
  4  6  1  0  0  0
  6 23  1  0  0  0
 23 25  1  0  0  0
 25 26  2  0  0  0
 26 27  1  0  0  0
 27 28  2  0  0  0
 28 29  1  0  0  0
 29 30  2  0  0  0
 30 31  1  0  0  0
 31 32  2  0  0  0
 31 33  2  0  0  0
 31 34  1  0  0  0
 34 35  1  0  0  0
 34 36  1  0  0  0
  6  7  2  0  0  0
 12 16  1  0  0  0
 16 17  1  0  0  0
 16 18  2  0  0  0
 15 10  1  0  0  0
  7  1  1  0  0  0
 30 25  1  0  0  0
  8  9  1  0  0  0
 23 24  1  0  0  0
 17 19  1  0  0  0
 17 20  1  0  0  0
M  END
> <minimizedAffinity>
-5.95526

> <CNNscore>
0.2939500213

> <CNNaffinity>
5.6611537933

> <CNN_VS>
1.6640962362

> <CNNaffinity_variance>
0.3269899487

$$$$
[H]c1nc(N([H])c2c([H])c([H])c(C(=O)N([H])[H])c([H])c2OC([H])([H])[H])nc(N([H])c2c([H])c([H])c([H])c([H])c2S(=O)(=O)C([H])(C([H])([H])[H])C([H])([H])[H])c1Cl


 36 38  0  0  0  0  0  0  0  0999 V2000
   32.8724  -13.0829   36.9283 C   0  0  0  0  0  0  0  0  0  0  0  0
   33.7754  -12.1653   37.2789 N   0  0  0  0  0  0  0  0  0  0  0  0
   35.0838  -12.4416   37.3364 C   0  0  0  0  0  0  0  0  0  0  0  0
   35.5385  -13.7040   37.0293 C   0  0  0  0  0  0  0  0  0  0  0  0
   37.2686  -14.0644   37.1068 Cl  0  0  0  0  0  0  0  0  0  0  0  0
   34.6192  -14.6987   36.6556 C   0  0  0  0  0  0  0  0  0  0  0  0
   33.3479  -14.3358   36.6261 N   0  0  0  0  0  0  0  0  0  0  0  0
   31.5079  -12.8118   36.8635 N   0  0  0  0  0  0  0  0  0  0  0  0
   30.9581  -13.4234   36.1665 H   0  0  0  0  0  0  0  0  0  0  0  0
   30.1247  -12.2914   38.7486 C   0  0  0  0  0  0  0  0  0  0  0  0
   29.3907  -11.4407   39.5183 C   0  0  0  0  0  0  0  0  0  0  0  0
   29.2467  -10.1026   39.1996 C   0  0  0  0  0  0  0  0  0  0  0  0
   29.8752   -9.6569   38.0696 C   0  0  0  0  0  0  0  0  0  0  0  0
   30.6326  -10.5295   37.2731 C   0  0  0  0  0  0  0  0  0  0  0  0
   30.7841  -11.8629   37.5786 C   0  0  0  0  0  0  0  0  0  0  0  0
   28.4570   -9.2213   40.0415 C   0  0  0  0  0  0  0  0  0  0  0  0
   28.5602   -9.2956   41.4406 N   0  0  0  0  0  0  0  0  0  0  0  0
   27.6878   -8.3999   39.5059 O   0  0  0  0  0  0  0  0  0  0  0  0
   28.8164   -8.4203   41.9743 H   0  0  0  0  0  0  0  0  0  0  0  0
   28.4057  -10.1470   42.0173 H   0  0  0  0  0  0  0  0  0  0  0  0
   29.5758  -14.0898   40.2433 C   0  0  0  0  0  0  0  0  0  0  0  0
   30.2384  -13.6163   39.1080 O   0  0  0  0  0  0  0  0  0  0  0  0
   35.1482  -15.9661   36.3535 N   0  0  0  0  0  0  0  0  0  0  0  0
   36.1297  -16.1712   36.7205 H   0  0  0  0  0  0  0  0  0  0  0  0
   34.5664  -17.0228   35.6299 C   0  0  0  0  0  0  0  0  0  0  0  0
   33.5319  -16.8902   34.7272 C   0  0  0  0  0  0  0  0  0  0  0  0
   33.0074  -17.9931   34.0529 C   0  0  0  0  0  0  0  0  0  0  0  0
   33.4875  -19.2559   34.2498 C   0  0  0  0  0  0  0  0  0  0  0  0
   34.5144  -19.4124   35.1417 C   0  0  0  0  0  0  0  0  0  0  0  0
   35.0524  -18.3271   35.8240 C   0  0  0  0  0  0  0  0  0  0  0  0
   36.3415  -18.6077   36.9545 S   0  0  0  0  0  0  0  0  0  0  0  0
   35.8799  -18.5575   38.3853 O   0  0  0  0  0  0  0  0  0  0  0  0
   37.4781  -17.6061   36.8065 O   0  0  0  0  0  0  0  0  0  0  0  0
   37.0959  -20.1883   36.6032 C   0  0  0  0  0  0  0  0  0  0  0  0
   37.8051  -20.7067   37.8584 C   0  0  0  0  0  0  0  0  0  0  0  0
   38.1801  -20.0296   35.5746 C   0  0  0  0  0  0  0  0  0  0  0  0
 21 22  1  0  0  0
 22 10  1  0  0  0
 10 11  2  0  0  0
 11 12  1  0  0  0
 12 13  2  0  0  0
 13 14  1  0  0  0
 14 15  2  0  0  0
 15  8  1  0  0  0
  8  1  1  0  0  0
  1  2  2  0  0  0
  2  3  1  0  0  0
  3  4  2  0  0  0
  4  5  1  0  0  0
  4  6  1  0  0  0
  6 23  1  0  0  0
 23 25  1  0  0  0
 25 26  2  0  0  0
 26 27  1  0  0  0
 27 28  2  0  0  0
 28 29  1  0  0  0
 29 30  2  0  0  0
 30 31  1  0  0  0
 31 32  2  0  0  0
 31 33  2  0  0  0
 31 34  1  0  0  0
 34 35  1  0  0  0
 34 36  1  0  0  0
  6  7  2  0  0  0
 12 16  1  0  0  0
 16 17  1  0  0  0
 16 18  2  0  0  0
 15 10  1  0  0  0
  7  1  1  0  0  0
 30 25  1  0  0  0
  8  9  1  0  0  0
 23 24  1  0  0  0
 17 19  1  0  0  0
 17 20  1  0  0  0
M  END
> <minimizedAffinity>
-7.27561

> <CNNscore>
0.2414214313

> <CNNaffinity>
6.2745008469

> <CNN_VS>
1.5147989988

> <CNNaffinity_variance>
0.1028711423

$$$$
[H]c1nc(N([H])c2c([H])c([H])c(C(=O)N([H])[H])c([H])c2OC([H])([H])[H])nc(N([H])c2c([H])c([H])c([H])c([H])c2S(=O)(=O)C([H])(C([H])([H])[H])C([H])([H])[H])c1Cl


 36 38  0  0  0  0  0  0  0  0999 V2000
   35.2576  -15.1886   37.1136 C   0  0  0  0  0  0  0  0  0  0  0  0
   36.5678  -15.0840   37.3432 N   0  0  0  0  0  0  0  0  0  0  0  0
   37.4130  -16.0954   37.1104 C   0  0  0  0  0  0  0  0  0  0  0  0
   36.9417  -17.2917   36.6189 C   0  0  0  0  0  0  0  0  0  0  0  0
   38.0626  -18.6256   36.3128 Cl  0  0  0  0  0  0  0  0  0  0  0  0
   35.5682  -17.4421   36.3640 C   0  0  0  0  0  0  0  0  0  0  0  0
   34.8088  -16.3909   36.6233 N   0  0  0  0  0  0  0  0  0  0  0  0
   34.3650  -14.1462   37.3504 N   0  0  0  0  0  0  0  0  0  0  0  0
   33.4540  -14.4355   37.8489 H   0  0  0  0  0  0  0  0  0  0  0  0
   33.6298  -11.8850   37.6409 C   0  0  0  0  0  0  0  0  0  0  0  0
   33.6872  -10.5476   37.3901 C   0  0  0  0  0  0  0  0  0  0  0  0
   34.6109  -10.0045   36.5156 C   0  0  0  0  0  0  0  0  0  0  0  0
   35.4765  -10.8684   35.9030 C   0  0  0  0  0  0  0  0  0  0  0  0
   35.4212  -12.2473   36.1581 C   0  0  0  0  0  0  0  0  0  0  0  0
   34.5074  -12.8008   37.0257 C   0  0  0  0  0  0  0  0  0  0  0  0
   34.6462   -8.5737   36.2697 C   0  0  0  0  0  0  0  0  0  0  0  0
   35.7919   -7.9764   35.7180 N   0  0  0  0  0  0  0  0  0  0  0  0
   33.6477   -7.8846   36.5549 O   0  0  0  0  0  0  0  0  0  0  0  0
   35.6889   -7.4150   34.8286 H   0  0  0  0  0  0  0  0  0  0  0  0
   36.7545   -8.0332   36.1071 H   0  0  0  0  0  0  0  0  0  0  0  0
   31.3301  -12.2392   38.2375 C   0  0  0  0  0  0  0  0  0  0  0  0
   32.6913  -12.3781   38.5205 O   0  0  0  0  0  0  0  0  0  0  0  0
   35.1518  -18.6878   35.8618 N   0  0  0  0  0  0  0  0  0  0  0  0
   35.9157  -19.4179   35.7087 H   0  0  0  0  0  0  0  0  0  0  0  0
   33.8567  -19.1238   35.5278 C   0  0  0  0  0  0  0  0  0  0  0  0
   33.1247  -18.6784   34.4468 C   0  0  0  0  0  0  0  0  0  0  0  0
   31.8412  -19.1599   34.1880 C   0  0  0  0  0  0  0  0  0  0  0  0
   31.2443  -20.0923   34.9869 C   0  0  0  0  0  0  0  0  0  0  0  0
   31.9517  -20.5492   36.0664 C   0  0  0  0  0  0  0  0  0  0  0  0
   33.2322  -20.0836   36.3426 C   0  0  0  0  0  0  0  0  0  0  0  0
   34.0595  -20.6966   37.7419 S   0  0  0  0  0  0  0  0  0  0  0  0
   33.1297  -21.3565   38.7231 O   0  0  0  0  0  0  0  0  0  0  0  0
   34.8211  -19.6135   38.4928 O   0  0  0  0  0  0  0  0  0  0  0  0
   35.3237  -21.8452   37.2194 C   0  0  0  0  0  0  0  0  0  0  0  0
   34.9405  -23.2621   37.6586 C   0  0  0  0  0  0  0  0  0  0  0  0
   36.6177  -21.5501   37.9245 C   0  0  0  0  0  0  0  0  0  0  0  0
 21 22  1  0  0  0
 22 10  1  0  0  0
 10 11  2  0  0  0
 11 12  1  0  0  0
 12 13  2  0  0  0
 13 14  1  0  0  0
 14 15  2  0  0  0
 15  8  1  0  0  0
  8  1  1  0  0  0
  1  2  2  0  0  0
  2  3  1  0  0  0
  3  4  2  0  0  0
  4  5  1  0  0  0
  4  6  1  0  0  0
  6 23  1  0  0  0
 23 25  1  0  0  0
 25 26  2  0  0  0
 26 27  1  0  0  0
 27 28  2  0  0  0
 28 29  1  0  0  0
 29 30  2  0  0  0
 30 31  1  0  0  0
 31 32  2  0  0  0
 31 33  2  0  0  0
 31 34  1  0  0  0
 34 35  1  0  0  0
 34 36  1  0  0  0
  6  7  2  0  0  0
 12 16  1  0  0  0
 16 17  1  0  0  0
 16 18  2  0  0  0
 15 10  1  0  0  0
  7  1  1  0  0  0
 30 25  1  0  0  0
  8  9  1  0  0  0
 23 24  1  0  0  0
 17 19  1  0  0  0
 17 20  1  0  0  0
M  END
> <minimizedAffinity>
-7.15433

> <CNNscore>
0.2164888233

> <CNNaffinity>
6.3188872337

> <CNN_VS>
1.3679684401

> <CNNaffinity_variance>
0.1305388212

$$$$
[H]c1nc(N([H])c2c([H])c([H])c(C(=O)N([H])[H])c([H])c2OC([H])([H])[H])nc(N([H])c2c([H])c([H])c([H])c([H])c2S(=O)(=O)C([H])(C([H])([H])[H])C([H])([H])[H])c1Cl


 36 38  0  0  0  0  0  0  0  0999 V2000
   33.7208  -14.5659   36.4811 C   0  0  0  0  0  0  0  0  0  0  0  0
   34.6054  -13.6629   36.0544 N   0  0  0  0  0  0  0  0  0  0  0  0
   34.5993  -12.3988   36.4944 C   0  0  0  0  0  0  0  0  0  0  0  0
   33.6614  -11.9917   37.4162 C   0  0  0  0  0  0  0  0  0  0  0  0
   33.6571  -10.3201   37.9949 Cl  0  0  0  0  0  0  0  0  0  0  0  0
   32.7121  -12.9127   37.8904 C   0  0  0  0  0  0  0  0  0  0  0  0
   32.7939  -14.1383   37.4006 N   0  0  0  0  0  0  0  0  0  0  0  0
   33.7136  -15.8846   36.0334 N   0  0  0  0  0  0  0  0  0  0  0  0
   32.7414  -16.3500   36.0134 H   0  0  0  0  0  0  0  0  0  0  0  0
   34.5695  -17.5810   34.5747 C   0  0  0  0  0  0  0  0  0  0  0  0
   35.5595  -18.3838   34.0951 C   0  0  0  0  0  0  0  0  0  0  0  0
   36.8461  -18.3433   34.6007 C   0  0  0  0  0  0  0  0  0  0  0  0
   37.0936  -17.4571   35.6128 C   0  0  0  0  0  0  0  0  0  0  0  0
   36.0768  -16.6277   36.1104 C   0  0  0  0  0  0  0  0  0  0  0  0
   34.7925  -16.6578   35.6166 C   0  0  0  0  0  0  0  0  0  0  0  0
   37.8796  -19.2129   34.0673 C   0  0  0  0  0  0  0  0  0  0  0  0
   38.6020  -18.8375   32.9223 N   0  0  0  0  0  0  0  0  0  0  0  0
   38.1159  -20.2951   34.6386 O   0  0  0  0  0  0  0  0  0  0  0  0
   39.6560  -18.7932   32.9834 H   0  0  0  0  0  0  0  0  0  0  0  0
   38.1926  -18.5928   31.9982 H   0  0  0  0  0  0  0  0  0  0  0  0
   32.4756  -18.7378   34.3577 C   0  0  0  0  0  0  0  0  0  0  0  0
   33.3032  -17.6584   34.0379 O   0  0  0  0  0  0  0  0  0  0  0  0
   31.7830  -12.4340   38.8311 N   0  0  0  0  0  0  0  0  0  0  0  0
   32.1226  -12.3635   39.8410 H   0  0  0  0  0  0  0  0  0  0  0  0
   30.4513  -12.0249   38.6367 C   0  0  0  0  0  0  0  0  0  0  0  0
   30.0168  -11.1962   37.6232 C   0  0  0  0  0  0  0  0  0  0  0  0
   28.6750  -10.8336   37.5034 C   0  0  0  0  0  0  0  0  0  0  0  0
   27.7257  -11.2770   38.3786 C   0  0  0  0  0  0  0  0  0  0  0  0
   28.1334  -12.1007   39.3934 C   0  0  0  0  0  0  0  0  0  0  0  0
   29.4651  -12.4751   39.5310 C   0  0  0  0  0  0  0  0  0  0  0  0
   29.9092  -13.5078   40.8558 S   0  0  0  0  0  0  0  0  0  0  0  0
   31.1251  -13.0163   41.5925 O   0  0  0  0  0  0  0  0  0  0  0  0
   30.1899  -14.9374   40.4148 O   0  0  0  0  0  0  0  0  0  0  0  0
   28.5249  -13.6536   41.9752 C   0  0  0  0  0  0  0  0  0  0  0  0
   28.9945  -13.3802   43.4076 C   0  0  0  0  0  0  0  0  0  0  0  0
   28.0153  -15.0675   41.9902 C   0  0  0  0  0  0  0  0  0  0  0  0
 21 22  1  0  0  0
 22 10  1  0  0  0
 10 11  2  0  0  0
 11 12  1  0  0  0
 12 13  2  0  0  0
 13 14  1  0  0  0
 14 15  2  0  0  0
 15  8  1  0  0  0
  8  1  1  0  0  0
  1  2  2  0  0  0
  2  3  1  0  0  0
  3  4  2  0  0  0
  4  5  1  0  0  0
  4  6  1  0  0  0
  6 23  1  0  0  0
 23 25  1  0  0  0
 25 26  2  0  0  0
 26 27  1  0  0  0
 27 28  2  0  0  0
 28 29  1  0  0  0
 29 30  2  0  0  0
 30 31  1  0  0  0
 31 32  2  0  0  0
 31 33  2  0  0  0
 31 34  1  0  0  0
 34 35  1  0  0  0
 34 36  1  0  0  0
  6  7  2  0  0  0
 12 16  1  0  0  0
 16 17  1  0  0  0
 16 18  2  0  0  0
 15 10  1  0  0  0
  7  1  1  0  0  0
 30 25  1  0  0  0
  8  9  1  0  0  0
 23 24  1  0  0  0
 17 19  1  0  0  0
 17 20  1  0  0  0
M  END
> <minimizedAffinity>
-8.03794

> <CNNscore>
0.2088345587

> <CNNaffinity>
6.3960280418

> <CNN_VS>
1.3357117176

> <CNNaffinity_variance>
0.2333649844

$$$$
[H]c1nc(N([H])c2c([H])c([H])c(N3C([H])([H])C([H])([H])C([H])(N4C([H])([H])C([H])([H])N(C([H])([H])[H])C([H])([H])C4([H])[H])C([H])([H])C3([H])[H])c([H])c2OC([H])([H])[H])nc(N([H])c2c([H])c([H])c([H])c([H])c2P(=O)(C([H])([H])[H])C([H])([H])[H])c1Cl


 42 46  0  0  0  0  0  0  0  0999 V2000
   35.1420  -17.3713   35.6136 C   0  0  0  0  0  0  0  0  0  0  0  0
   36.4792  -17.5722   35.5320 C   0  0  0  0  0  0  0  0  0  0  0  0
   37.0738  -18.5280   34.7420 C   0  0  0  0  0  0  0  0  0  0  0  0
   36.2231  -19.3094   34.0027 C   0  0  0  0  0  0  0  0  0  0  0  0
   34.8317  -19.1188   34.0719 C   0  0  0  0  0  0  0  0  0  0  0  0
   34.2586  -18.1637   34.8630 C   0  0  0  0  0  0  0  0  0  0  0  0
   38.4832  -18.6769   34.7101 N   0  0  0  0  0  0  0  0  0  0  0  0
   39.1525  -19.0336   35.9193 C   0  0  0  0  0  0  0  0  0  0  0  0
   40.6241  -18.8615   35.9480 C   0  0  0  0  0  0  0  0  0  0  0  0
   41.3101  -18.7216   34.6291 C   0  0  0  0  0  0  0  0  0  0  0  0
   40.5235  -19.2259   33.4650 C   0  0  0  0  0  0  0  0  0  0  0  0
   39.1819  -18.4758   33.4839 C   0  0  0  0  0  0  0  0  0  0  0  0
   42.6186  -19.2478   34.7424 N   0  0  0  0  0  0  0  0  0  0  0  0
   42.7453  -20.6145   35.0708 C   0  0  0  0  0  0  0  0  0  0  0  0
   43.4446  -20.9393   36.3414 C   0  0  0  0  0  0  0  0  0  0  0  0
   44.3827  -19.9341   36.7873 N   0  0  0  0  0  0  0  0  0  0  0  0
   43.8022  -19.1812   37.8745 C   0  0  0  0  0  0  0  0  0  0  0  0
   44.8536  -19.0874   35.7129 C   0  0  0  0  0  0  0  0  0  0  0  0
   43.6855  -18.3791   35.0277 C   0  0  0  0  0  0  0  0  0  0  0  0
   35.3003  -15.1753   36.5771 C   0  0  0  0  0  0  0  0  0  0  0  0
   34.6137  -16.3960   36.4248 O   0  0  0  0  0  0  0  0  0  0  0  0
   32.8837  -17.8979   35.0056 N   0  0  0  0  0  0  0  0  0  0  0  0
   32.5406  -16.8748   34.9645 H   0  0  0  0  0  0  0  0  0  0  0  0
   31.8802  -18.8647   35.2027 C   0  0  0  0  0  0  0  0  0  0  0  0
   30.5605  -18.6878   35.1734 N   0  0  0  0  0  0  0  0  0  0  0  0
   29.6450  -19.6279   35.3615 C   0  0  0  0  0  0  0  0  0  0  0  0
   30.0804  -20.9042   35.6101 C   0  0  0  0  0  0  0  0  0  0  0  0
   28.8640  -22.1340   35.8556 Cl  0  0  0  0  0  0  0  0  0  0  0  0
   31.4610  -21.1906   35.6605 C   0  0  0  0  0  0  0  0  0  0  0  0
   32.2601  -20.1537   35.4540 N   0  0  0  0  0  0  0  0  0  0  0  0
   31.8344  -22.5140   35.9138 N   0  0  0  0  0  0  0  0  0  0  0  0
   32.3636  -22.6659   36.8317 H   0  0  0  0  0  0  0  0  0  0  0  0
   31.6345  -23.6876   35.1623 C   0  0  0  0  0  0  0  0  0  0  0  0
   31.4834  -23.6900   33.7939 C   0  0  0  0  0  0  0  0  0  0  0  0
   31.2894  -24.8528   33.0325 C   0  0  0  0  0  0  0  0  0  0  0  0
   31.2521  -26.0421   33.7153 C   0  0  0  0  0  0  0  0  0  0  0  0
   31.3983  -26.0837   35.0786 C   0  0  0  0  0  0  0  0  0  0  0  0
   31.5869  -24.9174   35.7884 C   0  0  0  0  0  0  0  0  0  0  0  0
   31.7653  -25.0321   37.5476 P   0  0  0  0  0  0  0  0  0  0  0  0
   30.2586  -24.4390   38.3923 C   0  0  0  0  0  0  0  0  0  0  0  0
   32.0001  -26.7583   38.0095 C   0  0  0  0  0  0  0  0  0  0  0  0
   32.8754  -24.1241   38.0083 O   0  0  0  0  0  0  0  0  0  0  0  0
 20 21  1  0  0  0
 21  1  1  0  0  0
  1  2  2  0  0  0
  2  3  1  0  0  0
  3  4  2  0  0  0
  4  5  1  0  0  0
  5  6  2  0  0  0
  6 22  1  0  0  0
 22 24  1  0  0  0
 24 25  2  0  0  0
 25 26  1  0  0  0
 26 27  2  0  0  0
 27 28  1  0  0  0
 27 29  1  0  0  0
 29 31  1  0  0  0
 31 33  1  0  0  0
 33 34  2  0  0  0
 34 35  1  0  0  0
 35 36  2  0  0  0
 36 37  1  0  0  0
 37 38  2  0  0  0
 38 39  1  0  0  0
 39 40  1  0  0  0
 39 41  1  0  0  0
 39 42  2  0  0  0
 29 30  2  0  0  0
  3  7  1  0  0  0
  7  8  1  0  0  0
  8  9  1  0  0  0
  9 10  1  0  0  0
 10 11  1  0  0  0
 11 12  1  0  0  0
 10 13  1  0  0  0
 13 14  1  0  0  0
 14 15  1  0  0  0
 15 16  1  0  0  0
 16 17  1  0  0  0
 16 18  1  0  0  0
 18 19  1  0  0  0
  6  1  1  0  0  0
 30 24  1  0  0  0
 12  7  1  0  0  0
 19 13  1  0  0  0
 38 33  1  0  0  0
 22 23  1  0  0  0
 31 32  1  0  0  0
M  END
> <minimizedAffinity>
-6.70550

> <CNNscore>
0.4931884110

> <CNNaffinity>
6.5098366737

> <CNN_VS>
3.2105760574

> <CNNaffinity_variance>
0.4376503527

$$$$
[H]c1nc(N([H])c2c([H])c([H])c(N3C([H])([H])C([H])([H])C([H])(N4C([H])([H])C([H])([H])N(C([H])([H])[H])C([H])([H])C4([H])[H])C([H])([H])C3([H])[H])c([H])c2OC([H])([H])[H])nc(N([H])c2c([H])c([H])c([H])c([H])c2P(=O)(C([H])([H])[H])C([H])([H])[H])c1Cl


 42 46  0  0  0  0  0  0  0  0999 V2000
   33.0016  -19.7383   34.3302 C   0  0  0  0  0  0  0  0  0  0  0  0
   34.3545  -19.7129   34.2655 C   0  0  0  0  0  0  0  0  0  0  0  0
   35.1470  -18.8124   34.9380 C   0  0  0  0  0  0  0  0  0  0  0  0
   34.4867  -17.8956   35.7153 C   0  0  0  0  0  0  0  0  0  0  0  0
   33.0830  -17.9032   35.7973 C   0  0  0  0  0  0  0  0  0  0  0  0
   32.3117  -18.8058   35.1214 C   0  0  0  0  0  0  0  0  0  0  0  0
   36.5591  -18.8500   34.8195 N   0  0  0  0  0  0  0  0  0  0  0  0
   37.2823  -19.7633   35.6444 C   0  0  0  0  0  0  0  0  0  0  0  0
   38.7463  -19.5594   35.7483 C   0  0  0  0  0  0  0  0  0  0  0  0
   39.3813  -18.7023   34.7032 C   0  0  0  0  0  0  0  0  0  0  0  0
   38.5752  -18.5456   33.4567 C   0  0  0  0  0  0  0  0  0  0  0  0
   37.2075  -17.9902   33.8854 C   0  0  0  0  0  0  0  0  0  0  0  0
   40.7120  -19.1410   34.5064 N   0  0  0  0  0  0  0  0  0  0  0  0
   41.0428  -19.6718   33.2413 C   0  0  0  0  0  0  0  0  0  0  0  0
   41.4947  -21.0871   33.2026 C   0  0  0  0  0  0  0  0  0  0  0  0
   42.0818  -21.5665   34.4333 N   0  0  0  0  0  0  0  0  0  0  0  0
   41.1318  -22.4052   35.1261 C   0  0  0  0  0  0  0  0  0  0  0  0
   42.5934  -20.4997   35.2659 C   0  0  0  0  0  0  0  0  0  0  0  0
   41.4856  -19.5083   35.6203 C   0  0  0  0  0  0  0  0  0  0  0  0
   32.2733  -22.0119   34.0533 C   0  0  0  0  0  0  0  0  0  0  0  0
   32.2697  -20.6678   33.6310 O   0  0  0  0  0  0  0  0  0  0  0  0
   30.9068  -18.8932   35.1330 N   0  0  0  0  0  0  0  0  0  0  0  0
   30.3345  -18.2164   34.5162 H   0  0  0  0  0  0  0  0  0  0  0  0
   30.1506  -19.8046   35.8934 C   0  0  0  0  0  0  0  0  0  0  0  0
   28.8352  -19.7984   36.1017 N   0  0  0  0  0  0  0  0  0  0  0  0
   28.1576  -20.6794   36.8241 C   0  0  0  0  0  0  0  0  0  0  0  0
   28.8608  -21.6960   37.4177 C   0  0  0  0  0  0  0  0  0  0  0  0
   27.9561  -22.8508   38.3665 Cl  0  0  0  0  0  0  0  0  0  0  0  0
   30.2593  -21.7870   37.2548 C   0  0  0  0  0  0  0  0  0  0  0  0
   30.8029  -20.8377   36.5066 N   0  0  0  0  0  0  0  0  0  0  0  0
   30.9121  -22.8514   37.8839 N   0  0  0  0  0  0  0  0  0  0  0  0
   30.6590  -22.9903   38.9146 H   0  0  0  0  0  0  0  0  0  0  0  0
   31.8531  -23.7756   37.3915 C   0  0  0  0  0  0  0  0  0  0  0  0
   31.5241  -24.8037   36.5371 C   0  0  0  0  0  0  0  0  0  0  0  0
   32.4529  -25.7280   36.0347 C   0  0  0  0  0  0  0  0  0  0  0  0
   33.7568  -25.5759   36.4333 C   0  0  0  0  0  0  0  0  0  0  0  0
   34.1267  -24.5651   37.2836 C   0  0  0  0  0  0  0  0  0  0  0  0
   33.1820  -23.6785   37.7539 C   0  0  0  0  0  0  0  0  0  0  0  0
   33.7172  -22.3957   38.8528 P   0  0  0  0  0  0  0  0  0  0  0  0
   35.2603  -22.8736   39.7049 C   0  0  0  0  0  0  0  0  0  0  0  0
   34.0644  -20.9050   37.9013 C   0  0  0  0  0  0  0  0  0  0  0  0
   32.6951  -22.1968   39.9413 O   0  0  0  0  0  0  0  0  0  0  0  0
 20 21  1  0  0  0
 21  1  1  0  0  0
  1  2  2  0  0  0
  2  3  1  0  0  0
  3  4  2  0  0  0
  4  5  1  0  0  0
  5  6  2  0  0  0
  6 22  1  0  0  0
 22 24  1  0  0  0
 24 25  2  0  0  0
 25 26  1  0  0  0
 26 27  2  0  0  0
 27 28  1  0  0  0
 27 29  1  0  0  0
 29 31  1  0  0  0
 31 33  1  0  0  0
 33 34  2  0  0  0
 34 35  1  0  0  0
 35 36  2  0  0  0
 36 37  1  0  0  0
 37 38  2  0  0  0
 38 39  1  0  0  0
 39 40  1  0  0  0
 39 41  1  0  0  0
 39 42  2  0  0  0
 29 30  2  0  0  0
  3  7  1  0  0  0
  7  8  1  0  0  0
  8  9  1  0  0  0
  9 10  1  0  0  0
 10 11  1  0  0  0
 11 12  1  0  0  0
 10 13  1  0  0  0
 13 14  1  0  0  0
 14 15  1  0  0  0
 15 16  1  0  0  0
 16 17  1  0  0  0
 16 18  1  0  0  0
 18 19  1  0  0  0
  6  1  1  0  0  0
 30 24  1  0  0  0
 12  7  1  0  0  0
 19 13  1  0  0  0
 38 33  1  0  0  0
 22 23  1  0  0  0
 31 32  1  0  0  0
M  END
> <minimizedAffinity>
-5.77935

> <CNNscore>
0.4239895940

> <CNNaffinity>
6.3817229271

> <CNN_VS>
2.7057840824

> <CNNaffinity_variance>
0.5622506738

$$$$
[H]c1nc(N([H])c2c([H])c([H])c(N3C([H])([H])C([H])([H])C([H])(N4C([H])([H])C([H])([H])N(C([H])([H])[H])C([H])([H])C4([H])[H])C([H])([H])C3([H])[H])c([H])c2OC([H])([H])[H])nc(N([H])c2c([H])c([H])c([H])c([H])c2P(=O)(C([H])([H])[H])C([H])([H])[H])c1Cl


 42 46  0  0  0  0  0  0  0  0999 V2000
   35.6027  -16.2444   36.6621 C   0  0  0  0  0  0  0  0  0  0  0  0
   36.6691  -17.0613   36.4875 C   0  0  0  0  0  0  0  0  0  0  0  0
   36.7581  -18.0232   35.5087 C   0  0  0  0  0  0  0  0  0  0  0  0
   35.6756  -18.1315   34.6738 C   0  0  0  0  0  0  0  0  0  0  0  0
   34.5577  -17.2942   34.8365 C   0  0  0  0  0  0  0  0  0  0  0  0
   34.4870  -16.3439   35.8155 C   0  0  0  0  0  0  0  0  0  0  0  0
   37.9101  -18.8407   35.3895 N   0  0  0  0  0  0  0  0  0  0  0  0
   38.8218  -18.8877   36.4869 C   0  0  0  0  0  0  0  0  0  0  0  0
   40.1591  -19.4694   36.2242 C   0  0  0  0  0  0  0  0  0  0  0  0
   40.3005  -20.2992   34.9907 C   0  0  0  0  0  0  0  0  0  0  0  0
   39.0125  -20.8149   34.4400 C   0  0  0  0  0  0  0  0  0  0  0  0
   38.1181  -19.5891   34.1942 C   0  0  0  0  0  0  0  0  0  0  0  0
   41.2922  -21.2822   35.2188 N   0  0  0  0  0  0  0  0  0  0  0  0
   41.2168  -22.0173   36.4212 C   0  0  0  0  0  0  0  0  0  0  0  0
   42.3638  -21.8940   37.3583 C   0  0  0  0  0  0  0  0  0  0  0  0
   43.6172  -21.5366   36.7335 N   0  0  0  0  0  0  0  0  0  0  0  0
   43.9003  -20.1426   36.9834 C   0  0  0  0  0  0  0  0  0  0  0  0
   43.6599  -21.8696   35.3263 C   0  0  0  0  0  0  0  0  0  0  0  0
   42.5324  -21.1701   34.5680 C   0  0  0  0  0  0  0  0  0  0  0  0
   36.7930  -14.7658   38.1361 C   0  0  0  0  0  0  0  0  0  0  0  0
   35.5797  -15.3026   37.6626 O   0  0  0  0  0  0  0  0  0  0  0  0
   33.4164  -15.4642   36.0636 N   0  0  0  0  0  0  0  0  0  0  0  0
   32.4048  -15.8260   35.9554 H   0  0  0  0  0  0  0  0  0  0  0  0
   33.5385  -14.1167   36.4509 C   0  0  0  0  0  0  0  0  0  0  0  0
   34.5181  -13.2667   36.1476 N   0  0  0  0  0  0  0  0  0  0  0  0
   34.5955  -12.0000   36.5304 C   0  0  0  0  0  0  0  0  0  0  0  0
   33.5823  -11.5044   37.3104 C   0  0  0  0  0  0  0  0  0  0  0  0
   33.6958   -9.8334   37.8077 Cl  0  0  0  0  0  0  0  0  0  0  0  0
   32.5001  -12.3290   37.6841 C   0  0  0  0  0  0  0  0  0  0  0  0
   32.5552  -13.5725   37.2291 N   0  0  0  0  0  0  0  0  0  0  0  0
   31.4998  -11.7574   38.4762 N   0  0  0  0  0  0  0  0  0  0  0  0
   31.2966  -10.7264   38.2723 H   0  0  0  0  0  0  0  0  0  0  0  0
   30.7112  -12.3083   39.5041 C   0  0  0  0  0  0  0  0  0  0  0  0
   31.2045  -13.1819   40.4468 C   0  0  0  0  0  0  0  0  0  0  0  0
   30.4308  -13.7336   41.4796 C   0  0  0  0  0  0  0  0  0  0  0  0
   29.1103  -13.3649   41.5300 C   0  0  0  0  0  0  0  0  0  0  0  0
   28.5791  -12.4972   40.6100 C   0  0  0  0  0  0  0  0  0  0  0  0
   29.3746  -11.9783   39.6112 C   0  0  0  0  0  0  0  0  0  0  0  0
   28.6329  -10.8658   38.4486 P   0  0  0  0  0  0  0  0  0  0  0  0
   26.8242  -11.1105   38.3798 C   0  0  0  0  0  0  0  0  0  0  0  0
   28.9290   -9.1687   38.9782 C   0  0  0  0  0  0  0  0  0  0  0  0
   29.1380  -11.1656   37.0615 O   0  0  0  0  0  0  0  0  0  0  0  0
 20 21  1  0  0  0
 21  1  1  0  0  0
  1  2  2  0  0  0
  2  3  1  0  0  0
  3  4  2  0  0  0
  4  5  1  0  0  0
  5  6  2  0  0  0
  6 22  1  0  0  0
 22 24  1  0  0  0
 24 25  2  0  0  0
 25 26  1  0  0  0
 26 27  2  0  0  0
 27 28  1  0  0  0
 27 29  1  0  0  0
 29 31  1  0  0  0
 31 33  1  0  0  0
 33 34  2  0  0  0
 34 35  1  0  0  0
 35 36  2  0  0  0
 36 37  1  0  0  0
 37 38  2  0  0  0
 38 39  1  0  0  0
 39 40  1  0  0  0
 39 41  1  0  0  0
 39 42  2  0  0  0
 29 30  2  0  0  0
  3  7  1  0  0  0
  7  8  1  0  0  0
  8  9  1  0  0  0
  9 10  1  0  0  0
 10 11  1  0  0  0
 11 12  1  0  0  0
 10 13  1  0  0  0
 13 14  1  0  0  0
 14 15  1  0  0  0
 15 16  1  0  0  0
 16 17  1  0  0  0
 16 18  1  0  0  0
 18 19  1  0  0  0
  6  1  1  0  0  0
 30 24  1  0  0  0
 12  7  1  0  0  0
 19 13  1  0  0  0
 38 33  1  0  0  0
 22 23  1  0  0  0
 31 32  1  0  0  0
M  END
> <minimizedAffinity>
-7.97447

> <CNNscore>
0.4209267199

> <CNNaffinity>
7.0218911171

> <CNN_VS>
2.9557015896

> <CNNaffinity_variance>
0.0228771418

$$$$
[H]c1nc(N([H])c2c([H])c([H])c(N3C([H])([H])C([H])([H])C([H])(N4C([H])([H])C([H])([H])N(C([H])([H])[H])C([H])([H])C4([H])[H])C([H])([H])C3([H])[H])c([H])c2OC([H])([H])[H])nc(N([H])c2c([H])c([H])c([H])c([H])c2P(=O)(C([H])([H])[H])C([H])([H])[H])c1Cl


 42 46  0  0  0  0  0  0  0  0999 V2000
   34.5184  -18.7475   34.3672 C   0  0  0  0  0  0  0  0  0  0  0  0
   35.8579  -18.9225   34.2669 C   0  0  0  0  0  0  0  0  0  0  0  0
   36.7726  -18.4533   35.1804 C   0  0  0  0  0  0  0  0  0  0  0  0
   36.2552  -17.7681   36.2498 C   0  0  0  0  0  0  0  0  0  0  0  0
   34.8681  -17.5743   36.3742 C   0  0  0  0  0  0  0  0  0  0  0  0
   33.9740  -18.0478   35.4560 C   0  0  0  0  0  0  0  0  0  0  0  0
   38.1614  -18.6776   35.0058 N   0  0  0  0  0  0  0  0  0  0  0  0
   38.9420  -19.0089   36.1541 C   0  0  0  0  0  0  0  0  0  0  0  0
   40.4142  -18.9134   36.0154 C   0  0  0  0  0  0  0  0  0  0  0  0
   40.9571  -18.8753   34.6248 C   0  0  0  0  0  0  0  0  0  0  0  0
   40.0245  -19.3943   33.5811 C   0  0  0  0  0  0  0  0  0  0  0  0
   38.7299  -18.5745   33.7025 C   0  0  0  0  0  0  0  0  0  0  0  0
   42.2439  -19.4634   34.6259 N   0  0  0  0  0  0  0  0  0  0  0  0
   42.3244  -20.8546   34.8490 C   0  0  0  0  0  0  0  0  0  0  0  0
   43.0752  -21.3010   36.0515 C   0  0  0  0  0  0  0  0  0  0  0  0
   44.0816  -20.3720   36.5134 N   0  0  0  0  0  0  0  0  0  0  0  0
   43.5959  -19.6767   37.6823 C   0  0  0  0  0  0  0  0  0  0  0  0
   44.5329  -19.4696   35.4765 C   0  0  0  0  0  0  0  0  0  0  0  0
   43.3638  -18.6641   34.9107 C   0  0  0  0  0  0  0  0  0  0  0  0
   33.3390  -20.6160   33.4218 C   0  0  0  0  0  0  0  0  0  0  0  0
   33.6593  -19.2441   33.4165 O   0  0  0  0  0  0  0  0  0  0  0  0
   32.5741  -17.9030   35.4869 N   0  0  0  0  0  0  0  0  0  0  0  0
   32.1466  -16.9173   35.3790 H   0  0  0  0  0  0  0  0  0  0  0  0
   31.6475  -18.9496   35.6498 C   0  0  0  0  0  0  0  0  0  0  0  0
   30.4472  -19.0711   35.0853 N   0  0  0  0  0  0  0  0  0  0  0  0
   29.6024  -20.0772   35.2623 C   0  0  0  0  0  0  0  0  0  0  0  0
   29.9844  -21.0934   36.1000 C   0  0  0  0  0  0  0  0  0  0  0  0
   28.8623  -22.4137   36.3242 Cl  0  0  0  0  0  0  0  0  0  0  0  0
   31.2388  -21.0542   36.7446 C   0  0  0  0  0  0  0  0  0  0  0  0
   31.9786  -19.9883   36.4744 N   0  0  0  0  0  0  0  0  0  0  0  0
   31.5656  -22.1257   37.5813 N   0  0  0  0  0  0  0  0  0  0  0  0
   31.1599  -22.0663   38.5700 H   0  0  0  0  0  0  0  0  0  0  0  0
   32.3438  -23.2749   37.3453 C   0  0  0  0  0  0  0  0  0  0  0  0
   32.1595  -24.1000   36.2588 C   0  0  0  0  0  0  0  0  0  0  0  0
   32.9316  -25.2449   36.0089 C   0  0  0  0  0  0  0  0  0  0  0  0
   33.9201  -25.5362   36.9146 C   0  0  0  0  0  0  0  0  0  0  0  0
   34.1367  -24.7402   38.0105 C   0  0  0  0  0  0  0  0  0  0  0  0
   33.3549  -23.6243   38.2184 C   0  0  0  0  0  0  0  0  0  0  0  0
   33.6776  -22.6362   39.6533 P   0  0  0  0  0  0  0  0  0  0  0  0
   32.4248  -22.9421   40.9466 C   0  0  0  0  0  0  0  0  0  0  0  0
   35.2824  -23.0888   40.3375 C   0  0  0  0  0  0  0  0  0  0  0  0
   33.5562  -21.1757   39.3052 O   0  0  0  0  0  0  0  0  0  0  0  0
 20 21  1  0  0  0
 21  1  1  0  0  0
  1  2  2  0  0  0
  2  3  1  0  0  0
  3  4  2  0  0  0
  4  5  1  0  0  0
  5  6  2  0  0  0
  6 22  1  0  0  0
 22 24  1  0  0  0
 24 25  2  0  0  0
 25 26  1  0  0  0
 26 27  2  0  0  0
 27 28  1  0  0  0
 27 29  1  0  0  0
 29 31  1  0  0  0
 31 33  1  0  0  0
 33 34  2  0  0  0
 34 35  1  0  0  0
 35 36  2  0  0  0
 36 37  1  0  0  0
 37 38  2  0  0  0
 38 39  1  0  0  0
 39 40  1  0  0  0
 39 41  1  0  0  0
 39 42  2  0  0  0
 29 30  2  0  0  0
  3  7  1  0  0  0
  7  8  1  0  0  0
  8  9  1  0  0  0
  9 10  1  0  0  0
 10 11  1  0  0  0
 11 12  1  0  0  0
 10 13  1  0  0  0
 13 14  1  0  0  0
 14 15  1  0  0  0
 15 16  1  0  0  0
 16 17  1  0  0  0
 16 18  1  0  0  0
 18 19  1  0  0  0
  6  1  1  0  0  0
 30 24  1  0  0  0
 12  7  1  0  0  0
 19 13  1  0  0  0
 38 33  1  0  0  0
 22 23  1  0  0  0
 31 32  1  0  0  0
M  END
> <minimizedAffinity>
-5.82274

> <CNNscore>
0.4086355865

> <CNNaffinity>
6.2816095352

> <CNN_VS>
2.5668892860

> <CNNaffinity_variance>
0.7653201818

$$$$
[H]c1nc(N([H])c2c([H])c([H])c(N3C([H])([H])C([H])([H])C([H])(N4C([H])([H])C([H])([H])N(C([H])([H])[H])C([H])([H])C4([H])[H])C([H])([H])C3([H])[H])c([H])c2OC([H])([H])[H])nc(N([H])c2c([H])c([H])c([H])c([H])c2P(=O)(C([H])([H])[H])C([H])([H])[H])c1Cl


 42 46  0  0  0  0  0  0  0  0999 V2000
   35.4541  -14.1371   36.5057 C   0  0  0  0  0  0  0  0  0  0  0  0
   36.2599  -15.2032   36.2842 C   0  0  0  0  0  0  0  0  0  0  0  0
   35.8272  -16.4165   35.8028 C   0  0  0  0  0  0  0  0  0  0  0  0
   34.4844  -16.5140   35.5415 C   0  0  0  0  0  0  0  0  0  0  0  0
   33.6292  -15.4202   35.7641 C   0  0  0  0  0  0  0  0  0  0  0  0
   34.0774  -14.2219   36.2434 C   0  0  0  0  0  0  0  0  0  0  0  0
   36.7337  -17.4868   35.5966 N   0  0  0  0  0  0  0  0  0  0  0  0
   37.0954  -17.8171   34.2559 C   0  0  0  0  0  0  0  0  0  0  0  0
   37.7658  -19.1214   34.0434 C   0  0  0  0  0  0  0  0  0  0  0  0
   38.3537  -19.7790   35.2483 C   0  0  0  0  0  0  0  0  0  0  0  0
   38.6022  -18.8588   36.3971 C   0  0  0  0  0  0  0  0  0  0  0  0
   37.2573  -18.1887   36.7215 C   0  0  0  0  0  0  0  0  0  0  0  0
   39.4698  -20.5487   34.8435 N   0  0  0  0  0  0  0  0  0  0  0  0
   40.3772  -20.9571   35.8443 C   0  0  0  0  0  0  0  0  0  0  0  0
   41.7751  -20.4662   35.7261 C   0  0  0  0  0  0  0  0  0  0  0  0
   42.1864  -20.1356   34.3805 N   0  0  0  0  0  0  0  0  0  0  0  0
   42.1913  -18.7007   34.2165 C   0  0  0  0  0  0  0  0  0  0  0  0
   41.3995  -20.8085   33.3700 C   0  0  0  0  0  0  0  0  0  0  0  0
   39.9181  -20.4618   33.5148 C   0  0  0  0  0  0  0  0  0  0  0  0
   37.3070  -12.8755   37.3726 C   0  0  0  0  0  0  0  0  0  0  0  0
   35.9536  -12.9515   36.9889 O   0  0  0  0  0  0  0  0  0  0  0  0
   33.3055  -13.0739   36.5038 N   0  0  0  0  0  0  0  0  0  0  0  0
   33.3665  -12.2362   35.8251 H   0  0  0  0  0  0  0  0  0  0  0  0
   32.4346  -12.9049   37.5963 C   0  0  0  0  0  0  0  0  0  0  0  0
   32.6443  -13.2459   38.8666 N   0  0  0  0  0  0  0  0  0  0  0  0
   31.7974  -13.0665   39.8705 C   0  0  0  0  0  0  0  0  0  0  0  0
   30.5908  -12.4774   39.5919 C   0  0  0  0  0  0  0  0  0  0  0  0
   29.4839  -12.2461   40.9237 Cl  0  0  0  0  0  0  0  0  0  0  0  0
   30.2768  -12.0810   38.2748 C   0  0  0  0  0  0  0  0  0  0  0  0
   31.2182  -12.3222   37.3736 N   0  0  0  0  0  0  0  0  0  0  0  0
   29.0312  -11.4823   38.0632 N   0  0  0  0  0  0  0  0  0  0  0  0
   28.4404  -11.9304   37.2912 H   0  0  0  0  0  0  0  0  0  0  0  0
   28.4184  -10.3827   38.6935 C   0  0  0  0  0  0  0  0  0  0  0  0
   29.0513   -9.1754   38.8865 C   0  0  0  0  0  0  0  0  0  0  0  0
   28.4501   -8.0701   39.5080 C   0  0  0  0  0  0  0  0  0  0  0  0
   27.1572   -8.2280   39.9388 C   0  0  0  0  0  0  0  0  0  0  0  0
   26.4906   -9.4144   39.7662 C   0  0  0  0  0  0  0  0  0  0  0  0
   27.1186  -10.4756   39.1503 C   0  0  0  0  0  0  0  0  0  0  0  0
   26.2097  -11.9845   38.9588 P   0  0  0  0  0  0  0  0  0  0  0  0
   25.6296  -12.6021   40.5767 C   0  0  0  0  0  0  0  0  0  0  0  0
   24.7527  -11.6756   37.9439 C   0  0  0  0  0  0  0  0  0  0  0  0
   27.1134  -13.0588   38.4124 O   0  0  0  0  0  0  0  0  0  0  0  0
 20 21  1  0  0  0
 21  1  1  0  0  0
  1  2  2  0  0  0
  2  3  1  0  0  0
  3  4  2  0  0  0
  4  5  1  0  0  0
  5  6  2  0  0  0
  6 22  1  0  0  0
 22 24  1  0  0  0
 24 25  2  0  0  0
 25 26  1  0  0  0
 26 27  2  0  0  0
 27 28  1  0  0  0
 27 29  1  0  0  0
 29 31  1  0  0  0
 31 33  1  0  0  0
 33 34  2  0  0  0
 34 35  1  0  0  0
 35 36  2  0  0  0
 36 37  1  0  0  0
 37 38  2  0  0  0
 38 39  1  0  0  0
 39 40  1  0  0  0
 39 41  1  0  0  0
 39 42  2  0  0  0
 29 30  2  0  0  0
  3  7  1  0  0  0
  7  8  1  0  0  0
  8  9  1  0  0  0
  9 10  1  0  0  0
 10 11  1  0  0  0
 11 12  1  0  0  0
 10 13  1  0  0  0
 13 14  1  0  0  0
 14 15  1  0  0  0
 15 16  1  0  0  0
 16 17  1  0  0  0
 16 18  1  0  0  0
 18 19  1  0  0  0
  6  1  1  0  0  0
 30 24  1  0  0  0
 12  7  1  0  0  0
 19 13  1  0  0  0
 38 33  1  0  0  0
 22 23  1  0  0  0
 31 32  1  0  0  0
M  END
> <minimizedAffinity>
-9.11502

> <CNNscore>
0.3836327493

> <CNNaffinity>
6.9161872864

> <CNN_VS>
2.6532759666

> <CNNaffinity_variance>
0.0502273217

$$$$
[H]c1nc(N([H])c2c([H])c([H])c(N3C([H])([H])C([H])([H])C([H])(N4C([H])([H])C([H])([H])N(C([H])([H])[H])C([H])([H])C4([H])[H])C([H])([H])C3([H])[H])c([H])c2OC([H])([H])[H])nc(N([H])c2c([H])c([H])c([H])c([H])c2P(=O)(C([H])([H])[H])C([H])([H])[H])c1Cl


 42 46  0  0  0  0  0  0  0  0999 V2000
   34.7246  -17.4166   35.4581 C   0  0  0  0  0  0  0  0  0  0  0  0
   35.7342  -18.3178   35.5163 C   0  0  0  0  0  0  0  0  0  0  0  0
   36.8845  -18.1484   36.2506 C   0  0  0  0  0  0  0  0  0  0  0  0
   36.9782  -16.9768   36.9572 C   0  0  0  0  0  0  0  0  0  0  0  0
   35.9425  -16.0269   36.9114 C   0  0  0  0  0  0  0  0  0  0  0  0
   34.8064  -16.2124   36.1756 C   0  0  0  0  0  0  0  0  0  0  0  0
   37.8979  -19.1397   36.2612 N   0  0  0  0  0  0  0  0  0  0  0  0
   37.5385  -20.4770   35.9148 C   0  0  0  0  0  0  0  0  0  0  0  0
   38.5139  -21.5418   36.2474 C   0  0  0  0  0  0  0  0  0  0  0  0
   39.9128  -21.1057   36.5353 C   0  0  0  0  0  0  0  0  0  0  0  0
   40.2596  -19.7515   36.0119 C   0  0  0  0  0  0  0  0  0  0  0  0
   39.2321  -18.7748   36.6062 C   0  0  0  0  0  0  0  0  0  0  0  0
   40.7968  -22.1418   36.1523 N   0  0  0  0  0  0  0  0  0  0  0  0
   40.2317  -23.3056   35.5883 C   0  0  0  0  0  0  0  0  0  0  0  0
   40.4459  -24.5808   36.3211 C   0  0  0  0  0  0  0  0  0  0  0  0
   41.6256  -24.6058   37.1558 N   0  0  0  0  0  0  0  0  0  0  0  0
   41.2410  -24.4487   38.5390 C   0  0  0  0  0  0  0  0  0  0  0  0
   42.6269  -23.6463   36.7441 C   0  0  0  0  0  0  0  0  0  0  0  0
   42.0596  -22.2273   36.7624 C   0  0  0  0  0  0  0  0  0  0  0  0
   33.3675  -18.9408   34.1887 C   0  0  0  0  0  0  0  0  0  0  0  0
   33.6004  -17.6500   34.7029 O   0  0  0  0  0  0  0  0  0  0  0  0
   33.7199  -15.3249   36.0602 N   0  0  0  0  0  0  0  0  0  0  0  0
   32.8099  -15.6685   35.5912 H   0  0  0  0  0  0  0  0  0  0  0  0
   33.7022  -13.9915   36.5099 C   0  0  0  0  0  0  0  0  0  0  0  0
   34.6574  -13.0731   36.3760 N   0  0  0  0  0  0  0  0  0  0  0  0
   34.6013  -11.8226   36.8123 C   0  0  0  0  0  0  0  0  0  0  0  0
   33.4623  -11.4226   37.4628 C   0  0  0  0  0  0  0  0  0  0  0  0
   33.4006   -9.7721   38.0322 Cl  0  0  0  0  0  0  0  0  0  0  0  0
   32.3945  -12.3248   37.6533 C   0  0  0  0  0  0  0  0  0  0  0  0
   32.5899  -13.5412   37.1648 N   0  0  0  0  0  0  0  0  0  0  0  0
   31.2617  -11.8488   38.3206 N   0  0  0  0  0  0  0  0  0  0  0  0
   30.8978  -10.9036   37.9743 H   0  0  0  0  0  0  0  0  0  0  0  0
   30.5150  -12.4020   39.3781 C   0  0  0  0  0  0  0  0  0  0  0  0
   31.0231  -13.3371   40.2514 C   0  0  0  0  0  0  0  0  0  0  0  0
   30.2916  -13.8920   41.3126 C   0  0  0  0  0  0  0  0  0  0  0  0
   28.9983  -13.4609   41.4666 C   0  0  0  0  0  0  0  0  0  0  0  0
   28.4535  -12.5307   40.6183 C   0  0  0  0  0  0  0  0  0  0  0  0
   29.2074  -12.0110   39.5882 C   0  0  0  0  0  0  0  0  0  0  0  0
   28.4496  -10.8161   38.5215 P   0  0  0  0  0  0  0  0  0  0  0  0
   26.6306  -10.9760   38.5574 C   0  0  0  0  0  0  0  0  0  0  0  0
   28.8582   -9.1591   39.1007 C   0  0  0  0  0  0  0  0  0  0  0  0
   28.8539  -11.0771   37.0941 O   0  0  0  0  0  0  0  0  0  0  0  0
 20 21  1  0  0  0
 21  1  1  0  0  0
  1  2  2  0  0  0
  2  3  1  0  0  0
  3  4  2  0  0  0
  4  5  1  0  0  0
  5  6  2  0  0  0
  6 22  1  0  0  0
 22 24  1  0  0  0
 24 25  2  0  0  0
 25 26  1  0  0  0
 26 27  2  0  0  0
 27 28  1  0  0  0
 27 29  1  0  0  0
 29 31  1  0  0  0
 31 33  1  0  0  0
 33 34  2  0  0  0
 34 35  1  0  0  0
 35 36  2  0  0  0
 36 37  1  0  0  0
 37 38  2  0  0  0
 38 39  1  0  0  0
 39 40  1  0  0  0
 39 41  1  0  0  0
 39 42  2  0  0  0
 29 30  2  0  0  0
  3  7  1  0  0  0
  7  8  1  0  0  0
  8  9  1  0  0  0
  9 10  1  0  0  0
 10 11  1  0  0  0
 11 12  1  0  0  0
 10 13  1  0  0  0
 13 14  1  0  0  0
 14 15  1  0  0  0
 15 16  1  0  0  0
 16 17  1  0  0  0
 16 18  1  0  0  0
 18 19  1  0  0  0
  6  1  1  0  0  0
 30 24  1  0  0  0
 12  7  1  0  0  0
 19 13  1  0  0  0
 38 33  1  0  0  0
 22 23  1  0  0  0
 31 32  1  0  0  0
M  END
> <minimizedAffinity>
-7.52795

> <CNNscore>
0.3740402758

> <CNNaffinity>
6.8734827042

> <CNN_VS>
2.5709593296

> <CNNaffinity_variance>
0.0355691165

$$$$
[H]c1nc(N([H])c2c([H])c([H])c(N3C([H])([H])C([H])([H])C([H])(N4C([H])([H])C([H])([H])N(C([H])([H])[H])C([H])([H])C4([H])[H])C([H])([H])C3([H])[H])c([H])c2OC([H])([H])[H])nc(N([H])c2c([H])c([H])c([H])c([H])c2P(=O)(C([H])([H])[H])C([H])([H])[H])c1Cl


 42 46  0  0  0  0  0  0  0  0999 V2000
   34.6240  -17.2756   35.1760 C   0  0  0  0  0  0  0  0  0  0  0  0
   35.6759  -18.1048   34.9735 C   0  0  0  0  0  0  0  0  0  0  0  0
   36.8695  -18.0244   35.6516 C   0  0  0  0  0  0  0  0  0  0  0  0
   36.9621  -17.0256   36.5868 C   0  0  0  0  0  0  0  0  0  0  0  0
   35.8830  -16.1531   36.8136 C   0  0  0  0  0  0  0  0  0  0  0  0
   34.7042  -16.2482   36.1296 C   0  0  0  0  0  0  0  0  0  0  0  0
   37.9256  -18.9312   35.3830 N   0  0  0  0  0  0  0  0  0  0  0  0
   38.8736  -19.1900   36.4183 C   0  0  0  0  0  0  0  0  0  0  0  0
   40.1319  -19.8654   36.0228 C   0  0  0  0  0  0  0  0  0  0  0  0
   40.1349  -20.5604   34.7011 C   0  0  0  0  0  0  0  0  0  0  0  0
   38.7785  -20.8831   34.1678 C   0  0  0  0  0  0  0  0  0  0  0  0
   38.0047  -19.5564   34.1044 C   0  0  0  0  0  0  0  0  0  0  0  0
   41.0295  -21.6544   34.7680 N   0  0  0  0  0  0  0  0  0  0  0  0
   41.8708  -21.8772   33.6569 C   0  0  0  0  0  0  0  0  0  0  0  0
   41.7154  -23.1720   32.9441 C   0  0  0  0  0  0  0  0  0  0  0  0
   41.1807  -24.2447   33.7520 N   0  0  0  0  0  0  0  0  0  0  0  0
   39.7925  -24.4567   33.4145 C   0  0  0  0  0  0  0  0  0  0  0  0
   41.3835  -24.0369   35.1692 C   0  0  0  0  0  0  0  0  0  0  0  0
   40.7371  -22.7290   35.6245 C   0  0  0  0  0  0  0  0  0  0  0  0
   32.7992  -18.6577   34.4439 C   0  0  0  0  0  0  0  0  0  0  0  0
   33.4578  -17.4125   34.4620 O   0  0  0  0  0  0  0  0  0  0  0  0
   33.5720  -15.4250   36.2784 N   0  0  0  0  0  0  0  0  0  0  0  0
   32.5925  -15.8439   36.1022 H   0  0  0  0  0  0  0  0  0  0  0  0
   33.5916  -14.0665   36.6456 C   0  0  0  0  0  0  0  0  0  0  0  0
   34.5333  -13.1633   36.3787 N   0  0  0  0  0  0  0  0  0  0  0  0
   34.5134  -11.8881   36.7406 C   0  0  0  0  0  0  0  0  0  0  0  0
   33.4313  -11.4430   37.4557 C   0  0  0  0  0  0  0  0  0  0  0  0
   33.4169   -9.7605   37.9261 Cl  0  0  0  0  0  0  0  0  0  0  0  0
   32.3820  -12.3261   37.7870 C   0  0  0  0  0  0  0  0  0  0  0  0
   32.5365  -13.5710   37.3597 N   0  0  0  0  0  0  0  0  0  0  0  0
   31.3075  -11.8041   38.5135 N   0  0  0  0  0  0  0  0  0  0  0  0
   31.0407  -10.7978   38.2646 H   0  0  0  0  0  0  0  0  0  0  0  0
   30.5133  -12.3780   39.5244 C   0  0  0  0  0  0  0  0  0  0  0  0
   30.9955  -13.2915   40.4345 C   0  0  0  0  0  0  0  0  0  0  0  0
   30.2163  -13.8666   41.4501 C   0  0  0  0  0  0  0  0  0  0  0  0
   28.9020  -13.4792   41.5180 C   0  0  0  0  0  0  0  0  0  0  0  0
   28.3819  -12.5717   40.6306 C   0  0  0  0  0  0  0  0  0  0  0  0
   29.1825  -12.0309   39.6477 C   0  0  0  0  0  0  0  0  0  0  0  0
   28.4550  -10.8670   38.5270 P   0  0  0  0  0  0  0  0  0  0  0  0
   26.6385  -11.0521   38.4885 C   0  0  0  0  0  0  0  0  0  0  0  0
   28.8161   -9.1938   39.0913 C   0  0  0  0  0  0  0  0  0  0  0  0
   28.9236  -11.1486   37.1234 O   0  0  0  0  0  0  0  0  0  0  0  0
 20 21  1  0  0  0
 21  1  1  0  0  0
  1  2  2  0  0  0
  2  3  1  0  0  0
  3  4  2  0  0  0
  4  5  1  0  0  0
  5  6  2  0  0  0
  6 22  1  0  0  0
 22 24  1  0  0  0
 24 25  2  0  0  0
 25 26  1  0  0  0
 26 27  2  0  0  0
 27 28  1  0  0  0
 27 29  1  0  0  0
 29 31  1  0  0  0
 31 33  1  0  0  0
 33 34  2  0  0  0
 34 35  1  0  0  0
 35 36  2  0  0  0
 36 37  1  0  0  0
 37 38  2  0  0  0
 38 39  1  0  0  0
 39 40  1  0  0  0
 39 41  1  0  0  0
 39 42  2  0  0  0
 29 30  2  0  0  0
  3  7  1  0  0  0
  7  8  1  0  0  0
  8  9  1  0  0  0
  9 10  1  0  0  0
 10 11  1  0  0  0
 11 12  1  0  0  0
 10 13  1  0  0  0
 13 14  1  0  0  0
 14 15  1  0  0  0
 15 16  1  0  0  0
 16 17  1  0  0  0
 16 18  1  0  0  0
 18 19  1  0  0  0
  6  1  1  0  0  0
 30 24  1  0  0  0
 12  7  1  0  0  0
 19 13  1  0  0  0
 38 33  1  0  0  0
 22 23  1  0  0  0
 31 32  1  0  0  0
M  END
> <minimizedAffinity>
-8.44074

> <CNNscore>
0.3650456965

> <CNNaffinity>
6.8854112625

> <CNN_VS>
2.5134897232

> <CNNaffinity_variance>
0.0694138855

$$$$
[H]c1nc(N([H])c2c([H])c([H])c(N3C([H])([H])C([H])([H])C([H])(N4C([H])([H])C([H])([H])N(C([H])([H])[H])C([H])([H])C4([H])[H])C([H])([H])C3([H])[H])c([H])c2OC([H])([H])[H])nc(N([H])c2c([H])c([H])c([H])c([H])c2P(=O)(C([H])([H])[H])C([H])([H])[H])c1Cl


 42 46  0  0  0  0  0  0  0  0999 V2000
   34.8583  -17.4536   35.4733 C   0  0  0  0  0  0  0  0  0  0  0  0
   36.1988  -17.6339   35.5464 C   0  0  0  0  0  0  0  0  0  0  0  0
   36.8929  -18.5906   34.8433 C   0  0  0  0  0  0  0  0  0  0  0  0
   36.1428  -19.3955   34.0246 C   0  0  0  0  0  0  0  0  0  0  0  0
   34.7499  -19.2265   33.9331 C   0  0  0  0  0  0  0  0  0  0  0  0
   34.0772  -18.2702   34.6398 C   0  0  0  0  0  0  0  0  0  0  0  0
   38.2989  -18.7171   34.9731 N   0  0  0  0  0  0  0  0  0  0  0  0
   39.1146  -18.3713   33.8540 C   0  0  0  0  0  0  0  0  0  0  0  0
   40.5275  -18.8166   33.8900 C   0  0  0  0  0  0  0  0  0  0  0  0
   41.0711  -19.2204   35.2209 C   0  0  0  0  0  0  0  0  0  0  0  0
   40.3015  -18.6987   36.3887 C   0  0  0  0  0  0  0  0  0  0  0  0
   38.8509  -19.1734   36.2057 C   0  0  0  0  0  0  0  0  0  0  0  0
   42.4586  -18.9443   35.2448 N   0  0  0  0  0  0  0  0  0  0  0  0
   43.3352  -20.0288   35.4623 C   0  0  0  0  0  0  0  0  0  0  0  0
   44.1892  -19.9705   36.6773 C   0  0  0  0  0  0  0  0  0  0  0  0
   44.4552  -18.6357   37.1639 N   0  0  0  0  0  0  0  0  0  0  0  0
   43.6391  -18.3747   38.3265 C   0  0  0  0  0  0  0  0  0  0  0  0
   44.3066  -17.6236   36.1409 C   0  0  0  0  0  0  0  0  0  0  0  0
   42.8949  -17.6455   35.5560 C   0  0  0  0  0  0  0  0  0  0  0  0
   34.7396  -15.1637   36.1934 C   0  0  0  0  0  0  0  0  0  0  0  0
   34.2274  -16.4761   36.2047 O   0  0  0  0  0  0  0  0  0  0  0  0
   32.6912  -18.0246   34.6220 N   0  0  0  0  0  0  0  0  0  0  0  0
   32.3330  -17.0668   34.2752 H   0  0  0  0  0  0  0  0  0  0  0  0
   31.6948  -18.9333   35.0246 C   0  0  0  0  0  0  0  0  0  0  0  0
   30.3842  -18.8590   34.7988 N   0  0  0  0  0  0  0  0  0  0  0  0
   29.4755  -19.7399   35.1932 C   0  0  0  0  0  0  0  0  0  0  0  0
   29.9084  -20.8329   35.8992 C   0  0  0  0  0  0  0  0  0  0  0  0
   28.7010  -21.9866   36.4127 Cl  0  0  0  0  0  0  0  0  0  0  0  0
   31.2793  -20.9995   36.1879 C   0  0  0  0  0  0  0  0  0  0  0  0
   32.0724  -20.0407   35.7315 N   0  0  0  0  0  0  0  0  0  0  0  0
   31.6511  -22.1391   36.9075 N   0  0  0  0  0  0  0  0  0  0  0  0
   30.8770  -22.5627   37.5135 H   0  0  0  0  0  0  0  0  0  0  0  0
   32.8774  -22.8275   36.9741 C   0  0  0  0  0  0  0  0  0  0  0  0
   34.0351  -22.2601   37.4569 C   0  0  0  0  0  0  0  0  0  0  0  0
   35.2621  -22.9367   37.5339 C   0  0  0  0  0  0  0  0  0  0  0  0
   35.2820  -24.2369   37.0965 C   0  0  0  0  0  0  0  0  0  0  0  0
   34.1507  -24.8397   36.6081 C   0  0  0  0  0  0  0  0  0  0  0  0
   32.9655  -24.1386   36.5499 C   0  0  0  0  0  0  0  0  0  0  0  0
   31.5379  -24.9673   35.9056 P   0  0  0  0  0  0  0  0  0  0  0  0
   31.0277  -24.2359   34.3118 C   0  0  0  0  0  0  0  0  0  0  0  0
   31.9419  -26.6972   35.6020 C   0  0  0  0  0  0  0  0  0  0  0  0
   30.3702  -24.7710   36.8368 O   0  0  0  0  0  0  0  0  0  0  0  0
 20 21  1  0  0  0
 21  1  1  0  0  0
  1  2  2  0  0  0
  2  3  1  0  0  0
  3  4  2  0  0  0
  4  5  1  0  0  0
  5  6  2  0  0  0
  6 22  1  0  0  0
 22 24  1  0  0  0
 24 25  2  0  0  0
 25 26  1  0  0  0
 26 27  2  0  0  0
 27 28  1  0  0  0
 27 29  1  0  0  0
 29 31  1  0  0  0
 31 33  1  0  0  0
 33 34  2  0  0  0
 34 35  1  0  0  0
 35 36  2  0  0  0
 36 37  1  0  0  0
 37 38  2  0  0  0
 38 39  1  0  0  0
 39 40  1  0  0  0
 39 41  1  0  0  0
 39 42  2  0  0  0
 29 30  2  0  0  0
  3  7  1  0  0  0
  7  8  1  0  0  0
  8  9  1  0  0  0
  9 10  1  0  0  0
 10 11  1  0  0  0
 11 12  1  0  0  0
 10 13  1  0  0  0
 13 14  1  0  0  0
 14 15  1  0  0  0
 15 16  1  0  0  0
 16 17  1  0  0  0
 16 18  1  0  0  0
 18 19  1  0  0  0
  6  1  1  0  0  0
 30 24  1  0  0  0
 12  7  1  0  0  0
 19 13  1  0  0  0
 38 33  1  0  0  0
 22 23  1  0  0  0
 31 32  1  0  0  0
M  END
> <minimizedAffinity>
-6.70806

> <CNNscore>
0.3612052500

> <CNNaffinity>
6.5703630447

> <CNN_VS>
2.3732495308

> <CNNaffinity_variance>
0.4289281964

$$$$
[H]c1nc(N([H])c2c([H])c([H])c(N3C([H])([H])C([H])([H])C([H])(N4C([H])([H])C([H])([H])N(C([H])([H])[H])C([H])([H])C4([H])[H])C([H])([H])C3([H])[H])c([H])c2OC([H])([H])[H])nc(N([H])c2c([H])c([H])c([H])c([H])c2P(=O)(C([H])([H])[H])C([H])([H])[H])c1Cl


 42 46  0  0  0  0  0  0  0  0999 V2000
   34.9120  -17.6143   35.0363 C   0  0  0  0  0  0  0  0  0  0  0  0
   35.9614  -18.4665   34.9490 C   0  0  0  0  0  0  0  0  0  0  0  0
   37.0970  -18.3810   35.7198 C   0  0  0  0  0  0  0  0  0  0  0  0
   37.1315  -17.3516   36.6253 C   0  0  0  0  0  0  0  0  0  0  0  0
   36.0538  -16.4549   36.7331 C   0  0  0  0  0  0  0  0  0  0  0  0
   34.9331  -16.5554   35.9582 C   0  0  0  0  0  0  0  0  0  0  0  0
   38.1546  -19.3130   35.5696 N   0  0  0  0  0  0  0  0  0  0  0  0
   38.3253  -19.9424   34.2999 C   0  0  0  0  0  0  0  0  0  0  0  0
   39.2042  -21.1346   34.2543 C   0  0  0  0  0  0  0  0  0  0  0  0
   40.1281  -21.3330   35.4106 C   0  0  0  0  0  0  0  0  0  0  0  0
   40.3841  -20.1032   36.2171 C   0  0  0  0  0  0  0  0  0  0  0  0
   39.0113  -19.5856   36.6759 C   0  0  0  0  0  0  0  0  0  0  0  0
   41.2873  -22.0028   34.9529 N   0  0  0  0  0  0  0  0  0  0  0  0
   41.7871  -21.6461   33.6822 C   0  0  0  0  0  0  0  0  0  0  0  0
   41.8232  -22.7141   32.6492 C   0  0  0  0  0  0  0  0  0  0  0  0
   41.9000  -24.0585   33.1744 N   0  0  0  0  0  0  0  0  0  0  0  0
   40.6050  -24.6900   33.0745 C   0  0  0  0  0  0  0  0  0  0  0  0
   42.4421  -24.1092   34.5148 C   0  0  0  0  0  0  0  0  0  0  0  0
   41.5987  -23.2699   35.4739 C   0  0  0  0  0  0  0  0  0  0  0  0
   32.9677  -18.8776   34.4039 C   0  0  0  0  0  0  0  0  0  0  0  0
   33.8056  -17.7579   34.2340 O   0  0  0  0  0  0  0  0  0  0  0  0
   33.8080  -15.7098   35.9856 N   0  0  0  0  0  0  0  0  0  0  0  0
   32.8621  -16.0841   35.6235 H   0  0  0  0  0  0  0  0  0  0  0  0
   33.7941  -14.3825   36.4533 C   0  0  0  0  0  0  0  0  0  0  0  0
   34.6023  -13.3848   36.0993 N   0  0  0  0  0  0  0  0  0  0  0  0
   34.5549  -12.1435   36.5619 C   0  0  0  0  0  0  0  0  0  0  0  0
   33.5914  -11.8432   37.4904 C   0  0  0  0  0  0  0  0  0  0  0  0
   33.5391  -10.2037   38.0917 Cl  0  0  0  0  0  0  0  0  0  0  0  0
   32.6879  -12.8345   37.9281 C   0  0  0  0  0  0  0  0  0  0  0  0
   32.8532  -14.0299   37.3801 N   0  0  0  0  0  0  0  0  0  0  0  0
   31.7283  -12.4580   38.8727 N   0  0  0  0  0  0  0  0  0  0  0  0
   32.0640  -12.4760   39.8890 H   0  0  0  0  0  0  0  0  0  0  0  0
   30.3873  -12.0594   38.7153 C   0  0  0  0  0  0  0  0  0  0  0  0
   29.9439  -11.3094   37.6494 C   0  0  0  0  0  0  0  0  0  0  0  0
   28.6095  -10.9104   37.4776 C   0  0  0  0  0  0  0  0  0  0  0  0
   27.7157  -11.3035   38.4414 C   0  0  0  0  0  0  0  0  0  0  0  0
   28.1162  -12.0513   39.5193 C   0  0  0  0  0  0  0  0  0  0  0  0
   29.4373  -12.4219   39.6496 C   0  0  0  0  0  0  0  0  0  0  0  0
   29.8973  -13.3839   41.0648 P   0  0  0  0  0  0  0  0  0  0  0  0
   28.8274  -12.9907   42.4918 C   0  0  0  0  0  0  0  0  0  0  0  0
   29.6783  -15.1332   40.6906 C   0  0  0  0  0  0  0  0  0  0  0  0
   31.2963  -13.0252   41.4929 O   0  0  0  0  0  0  0  0  0  0  0  0
 20 21  1  0  0  0
 21  1  1  0  0  0
  1  2  2  0  0  0
  2  3  1  0  0  0
  3  4  2  0  0  0
  4  5  1  0  0  0
  5  6  2  0  0  0
  6 22  1  0  0  0
 22 24  1  0  0  0
 24 25  2  0  0  0
 25 26  1  0  0  0
 26 27  2  0  0  0
 27 28  1  0  0  0
 27 29  1  0  0  0
 29 31  1  0  0  0
 31 33  1  0  0  0
 33 34  2  0  0  0
 34 35  1  0  0  0
 35 36  2  0  0  0
 36 37  1  0  0  0
 37 38  2  0  0  0
 38 39  1  0  0  0
 39 40  1  0  0  0
 39 41  1  0  0  0
 39 42  2  0  0  0
 29 30  2  0  0  0
  3  7  1  0  0  0
  7  8  1  0  0  0
  8  9  1  0  0  0
  9 10  1  0  0  0
 10 11  1  0  0  0
 11 12  1  0  0  0
 10 13  1  0  0  0
 13 14  1  0  0  0
 14 15  1  0  0  0
 15 16  1  0  0  0
 16 17  1  0  0  0
 16 18  1  0  0  0
 18 19  1  0  0  0
  6  1  1  0  0  0
 30 24  1  0  0  0
 12  7  1  0  0  0
 19 13  1  0  0  0
 38 33  1  0  0  0
 22 23  1  0  0  0
 31 32  1  0  0  0
M  END
> <minimizedAffinity>
-8.69665

> <CNNscore>
0.3117843568

> <CNNaffinity>
6.4661917686

> <CNN_VS>
2.0160574913

> <CNNaffinity_variance>
0.3972423077

$$$$
[H]c1nc(N([H])c2c([H])c([H])c(N3C([H])([H])C([H])([H])C([H])(N4C([H])([H])C([H])([H])OC([H])([H])C4([H])[H])C([H])([H])C3([H])[H])c([H])c2OC([H])([H])[H])nc(N([H])c2c([H])c([H])c([H])c([H])c2S(=O)(=O)C([H])(C([H])([H])[H])C([H])([H])[H])c1Cl


 43 47  0  0  0  0  0  0  0  0999 V2000
   34.9457  -13.0198   37.5992 N   0  0  0  0  0  0  0  0  0  0  0  0
   35.7906  -12.4800   38.0329 H   0  0  0  0  0  0  0  0  0  0  0  0
   33.7225  -12.3312   37.7065 C   0  0  0  0  0  0  0  0  0  0  0  0
   33.7666  -10.9592   37.5549 N   0  0  0  0  0  0  0  0  0  0  0  0
   32.7094  -10.1755   37.5986 C   0  0  0  0  0  0  0  0  0  0  0  0
   31.4668  -10.7308   37.8068 C   0  0  0  0  0  0  0  0  0  0  0  0
   30.0201   -9.7655   37.8730 Cl  0  0  0  0  0  0  0  0  0  0  0  0
   31.3502  -12.1231   37.9679 C   0  0  0  0  0  0  0  0  0  0  0  0
   32.5075  -12.8257   37.9044 N   0  0  0  0  0  0  0  0  0  0  0  0
   30.0751  -12.6431   38.2029 N   0  0  0  0  0  0  0  0  0  0  0  0
   29.9199  -13.6349   37.8390 H   0  0  0  0  0  0  0  0  0  0  0  0
   28.9499  -12.1018   38.8553 C   0  0  0  0  0  0  0  0  0  0  0  0
   28.0169  -11.3259   38.2184 C   0  0  0  0  0  0  0  0  0  0  0  0
   26.9693  -10.7673   38.9193 C   0  0  0  0  0  0  0  0  0  0  0  0
   26.8178  -10.9618   40.2691 C   0  0  0  0  0  0  0  0  0  0  0  0
   27.7527  -11.7452   40.9316 C   0  0  0  0  0  0  0  0  0  0  0  0
   28.8021  -12.3072   40.2412 C   0  0  0  0  0  0  0  0  0  0  0  0
   29.9077  -13.2881   41.1514 S   0  0  0  0  0  0  0  0  0  0  0  0
   31.3512  -12.9809   40.8938 O   0  0  0  0  0  0  0  0  0  0  0  0
   29.7053  -12.9661   42.6373 O   0  0  0  0  0  0  0  0  0  0  0  0
   29.6066  -15.0044   40.9260 C   0  0  0  0  0  0  0  0  0  0  0  0
   29.3221  -15.6561   42.3037 C   0  0  0  0  0  0  0  0  0  0  0  0
   28.4774  -15.2976   39.9760 C   0  0  0  0  0  0  0  0  0  0  0  0
   36.4979  -14.8229   37.3669 C   0  0  0  0  0  0  0  0  0  0  0  0
   36.7973  -16.0673   36.8658 C   0  0  0  0  0  0  0  0  0  0  0  0
   35.9208  -16.7869   36.0594 C   0  0  0  0  0  0  0  0  0  0  0  0
   34.7137  -16.2155   35.7623 C   0  0  0  0  0  0  0  0  0  0  0  0
   34.3693  -14.9468   36.2547 C   0  0  0  0  0  0  0  0  0  0  0  0
   35.2568  -14.2628   37.0482 C   0  0  0  0  0  0  0  0  0  0  0  0
   36.2432  -18.0664   35.5329 N   0  0  0  0  0  0  0  0  0  0  0  0
   36.8687  -18.1927   34.2141 C   0  0  0  0  0  0  0  0  0  0  0  0
   37.5038  -19.5768   34.0913 C   0  0  0  0  0  0  0  0  0  0  0  0
   38.2768  -19.8780   35.3420 C   0  0  0  0  0  0  0  0  0  0  0  0
   37.2607  -20.1311   36.4354 C   0  0  0  0  0  0  0  0  0  0  0  0
   36.0057  -19.3032   36.2248 C   0  0  0  0  0  0  0  0  0  0  0  0
   39.0786  -21.0618   35.1954 N   0  0  0  0  0  0  0  0  0  0  0  0
   39.9309  -21.2405   36.3778 C   0  0  0  0  0  0  0  0  0  0  0  0
   40.6751  -22.5473   36.1651 C   0  0  0  0  0  0  0  0  0  0  0  0
   41.5050  -22.4859   35.0514 O   0  0  0  0  0  0  0  0  0  0  0  0
   40.6744  -22.3272   33.9482 C   0  0  0  0  0  0  0  0  0  0  0  0
   40.0004  -20.9774   34.0763 C   0  0  0  0  0  0  0  0  0  0  0  0
   38.4146  -13.3675   37.5591 C   0  0  0  0  0  0  0  0  0  0  0  0
   37.3745  -14.1115   38.1687 O   0  0  0  0  0  0  0  0  0  0  0  0
 42 43  1  0  0  0
 43 24  1  0  0  0
 24 25  2  0  0  0
 25 26  1  0  0  0
 26 27  2  0  0  0
 27 28  1  0  0  0
 28 29  2  0  0  0
 29  1  1  0  0  0
  1  3  1  0  0  0
  3  4  2  0  0  0
  4  5  1  0  0  0
  5  6  2  0  0  0
  6  7  1  0  0  0
  6  8  1  0  0  0
  8 10  1  0  0  0
 10 12  1  0  0  0
 12 13  2  0  0  0
 13 14  1  0  0  0
 14 15  2  0  0  0
 15 16  1  0  0  0
 16 17  2  0  0  0
 17 18  1  0  0  0
 18 19  2  0  0  0
 18 20  2  0  0  0
 18 21  1  0  0  0
 21 22  1  0  0  0
 21 23  1  0  0  0
  8  9  2  0  0  0
 26 30  1  0  0  0
 30 31  1  0  0  0
 31 32  1  0  0  0
 32 33  1  0  0  0
 33 34  1  0  0  0
 34 35  1  0  0  0
 33 36  1  0  0  0
 36 37  1  0  0  0
 37 38  1  0  0  0
 38 39  1  0  0  0
 39 40  1  0  0  0
 40 41  1  0  0  0
 29 24  1  0  0  0
  9  3  1  0  0  0
 35 30  1  0  0  0
 41 36  1  0  0  0
 17 12  1  0  0  0
  1  2  1  0  0  0
 10 11  1  0  0  0
M  END
> <minimizedAffinity>
-9.22591

> <CNNscore>
0.5934712291

> <CNNaffinity>
7.4497785568

> <CNN_VS>
4.4212293625

> <CNNaffinity_variance>
0.0843598172

$$$$
[H]c1nc(N([H])c2c([H])c([H])c(N3C([H])([H])C([H])([H])C([H])(N4C([H])([H])C([H])([H])OC([H])([H])C4([H])[H])C([H])([H])C3([H])[H])c([H])c2OC([H])([H])[H])nc(N([H])c2c([H])c([H])c([H])c([H])c2S(=O)(=O)C([H])(C([H])([H])[H])C([H])([H])[H])c1Cl


 43 47  0  0  0  0  0  0  0  0999 V2000
   33.8569  -12.9386   37.5945 N   0  0  0  0  0  0  0  0  0  0  0  0
   34.5883  -12.1399   37.7372 H   0  0  0  0  0  0  0  0  0  0  0  0
   32.5491  -12.5785   37.9707 C   0  0  0  0  0  0  0  0  0  0  0  0
   31.9622  -11.5455   37.2664 N   0  0  0  0  0  0  0  0  0  0  0  0
   30.7376  -11.1091   37.4756 C   0  0  0  0  0  0  0  0  0  0  0  0
   29.9686  -11.7013   38.4521 C   0  0  0  0  0  0  0  0  0  0  0  0
   28.3401  -11.1870   38.7874 Cl  0  0  0  0  0  0  0  0  0  0  0  0
   30.5047  -12.7605   39.2064 C   0  0  0  0  0  0  0  0  0  0  0  0
   31.7749  -13.1215   38.9012 N   0  0  0  0  0  0  0  0  0  0  0  0
   29.7007  -13.3161   40.2046 N   0  0  0  0  0  0  0  0  0  0  0  0
   29.5950  -12.7171   41.0822 H   0  0  0  0  0  0  0  0  0  0  0  0
   28.9802  -14.5255   40.2600 C   0  0  0  0  0  0  0  0  0  0  0  0
   28.4552  -15.1353   39.1506 C   0  0  0  0  0  0  0  0  0  0  0  0
   27.7024  -16.2842   39.2691 C   0  0  0  0  0  0  0  0  0  0  0  0
   27.4492  -16.8595   40.4888 C   0  0  0  0  0  0  0  0  0  0  0  0
   27.9730  -16.2565   41.6240 C   0  0  0  0  0  0  0  0  0  0  0  0
   28.7255  -15.1094   41.5165 C   0  0  0  0  0  0  0  0  0  0  0  0
   29.3554  -14.4406   42.9892 S   0  0  0  0  0  0  0  0  0  0  0  0
   30.6193  -13.6558   42.8121 O   0  0  0  0  0  0  0  0  0  0  0  0
   28.3383  -13.4184   43.5120 O   0  0  0  0  0  0  0  0  0  0  0  0
   29.5748  -15.6654   44.2296 C   0  0  0  0  0  0  0  0  0  0  0  0
   28.2859  -16.5209   44.3332 C   0  0  0  0  0  0  0  0  0  0  0  0
   30.7645  -16.5555   43.9926 C   0  0  0  0  0  0  0  0  0  0  0  0
   35.6901  -14.4626   37.4175 C   0  0  0  0  0  0  0  0  0  0  0  0
   36.1947  -15.6559   36.9584 C   0  0  0  0  0  0  0  0  0  0  0  0
   35.4524  -16.5402   36.1818 C   0  0  0  0  0  0  0  0  0  0  0  0
   34.1668  -16.1903   35.8708 C   0  0  0  0  0  0  0  0  0  0  0  0
   33.6137  -14.9810   36.3205 C   0  0  0  0  0  0  0  0  0  0  0  0
   34.3729  -14.1303   37.0855 C   0  0  0  0  0  0  0  0  0  0  0  0
   35.9856  -17.7651   35.6984 N   0  0  0  0  0  0  0  0  0  0  0  0
   35.7645  -18.1769   34.3099 C   0  0  0  0  0  0  0  0  0  0  0  0
   36.7844  -19.2518   33.9376 C   0  0  0  0  0  0  0  0  0  0  0  0
   38.1447  -18.8252   34.4069 C   0  0  0  0  0  0  0  0  0  0  0  0
   38.1464  -18.9468   35.9159 C   0  0  0  0  0  0  0  0  0  0  0  0
   36.7701  -18.6693   36.4933 C   0  0  0  0  0  0  0  0  0  0  0  0
   39.1752  -19.6829   33.8889 N   0  0  0  0  0  0  0  0  0  0  0  0
   39.3042  -20.8783   34.7322 C   0  0  0  0  0  0  0  0  0  0  0  0
   40.3529  -21.7512   34.0651 C   0  0  0  0  0  0  0  0  0  0  0  0
   41.5925  -21.1226   34.0306 O   0  0  0  0  0  0  0  0  0  0  0  0
   41.4452  -20.0032   33.2199 C   0  0  0  0  0  0  0  0  0  0  0  0
   40.4868  -19.0600   33.9159 C   0  0  0  0  0  0  0  0  0  0  0  0
   37.7500  -13.2572   37.7817 C   0  0  0  0  0  0  0  0  0  0  0  0
   36.4340  -13.5866   38.1898 O   0  0  0  0  0  0  0  0  0  0  0  0
 42 43  1  0  0  0
 43 24  1  0  0  0
 24 25  2  0  0  0
 25 26  1  0  0  0
 26 27  2  0  0  0
 27 28  1  0  0  0
 28 29  2  0  0  0
 29  1  1  0  0  0
  1  3  1  0  0  0
  3  4  2  0  0  0
  4  5  1  0  0  0
  5  6  2  0  0  0
  6  7  1  0  0  0
  6  8  1  0  0  0
  8 10  1  0  0  0
 10 12  1  0  0  0
 12 13  2  0  0  0
 13 14  1  0  0  0
 14 15  2  0  0  0
 15 16  1  0  0  0
 16 17  2  0  0  0
 17 18  1  0  0  0
 18 19  2  0  0  0
 18 20  2  0  0  0
 18 21  1  0  0  0
 21 22  1  0  0  0
 21 23  1  0  0  0
  8  9  2  0  0  0
 26 30  1  0  0  0
 30 31  1  0  0  0
 31 32  1  0  0  0
 32 33  1  0  0  0
 33 34  1  0  0  0
 34 35  1  0  0  0
 33 36  1  0  0  0
 36 37  1  0  0  0
 37 38  1  0  0  0
 38 39  1  0  0  0
 39 40  1  0  0  0
 40 41  1  0  0  0
 29 24  1  0  0  0
  9  3  1  0  0  0
 35 30  1  0  0  0
 41 36  1  0  0  0
 17 12  1  0  0  0
  1  2  1  0  0  0
 10 11  1  0  0  0
M  END
> <minimizedAffinity>
-7.64345

> <CNNscore>
0.4567004144

> <CNNaffinity>
7.0534934998

> <CNN_VS>
3.2213335037

> <CNNaffinity_variance>
0.1220444441

$$$$
[H]c1nc(N([H])c2c([H])c([H])c(N3C([H])([H])C([H])([H])C([H])(N4C([H])([H])C([H])([H])OC([H])([H])C4([H])[H])C([H])([H])C3([H])[H])c([H])c2OC([H])([H])[H])nc(N([H])c2c([H])c([H])c([H])c([H])c2S(=O)(=O)C([H])(C([H])([H])[H])C([H])([H])[H])c1Cl


 43 47  0  0  0  0  0  0  0  0999 V2000
   33.3768  -17.8866   34.9311 N   0  0  0  0  0  0  0  0  0  0  0  0
   33.0431  -16.8617   34.7538 H   0  0  0  0  0  0  0  0  0  0  0  0
   32.3291  -18.7742   35.2414 C   0  0  0  0  0  0  0  0  0  0  0  0
   31.0833  -18.4679   34.7299 N   0  0  0  0  0  0  0  0  0  0  0  0
   30.0091  -19.2092   34.9041 C   0  0  0  0  0  0  0  0  0  0  0  0
   30.1031  -20.3703   35.6382 C   0  0  0  0  0  0  0  0  0  0  0  0
   28.7324  -21.4076   35.9104 Cl  0  0  0  0  0  0  0  0  0  0  0  0
   31.3435  -20.7425   36.1870 C   0  0  0  0  0  0  0  0  0  0  0  0
   32.3765  -19.9002   35.9414 N   0  0  0  0  0  0  0  0  0  0  0  0
   31.3899  -21.9139   36.9467 N   0  0  0  0  0  0  0  0  0  0  0  0
   31.0426  -21.8123   37.9513 H   0  0  0  0  0  0  0  0  0  0  0  0
   31.7968  -23.2232   36.6228 C   0  0  0  0  0  0  0  0  0  0  0  0
   31.4041  -23.8674   35.4787 C   0  0  0  0  0  0  0  0  0  0  0  0
   31.7790  -25.1729   35.2422 C   0  0  0  0  0  0  0  0  0  0  0  0
   32.5522  -25.8751   36.1321 C   0  0  0  0  0  0  0  0  0  0  0  0
   32.9601  -25.2391   37.2965 C   0  0  0  0  0  0  0  0  0  0  0  0
   32.5912  -23.9364   37.5420 C   0  0  0  0  0  0  0  0  0  0  0  0
   33.1670  -23.2195   39.0143 S   0  0  0  0  0  0  0  0  0  0  0  0
   32.1399  -22.4043   39.7391 O   0  0  0  0  0  0  0  0  0  0  0  0
   33.5110  -24.3560   39.9853 O   0  0  0  0  0  0  0  0  0  0  0  0
   34.6224  -22.2686   38.7603 C   0  0  0  0  0  0  0  0  0  0  0  0
   35.2634  -22.6714   37.4073 C   0  0  0  0  0  0  0  0  0  0  0  0
   34.3843  -20.7834   38.7940 C   0  0  0  0  0  0  0  0  0  0  0  0
   35.5875  -17.3467   35.6630 C   0  0  0  0  0  0  0  0  0  0  0  0
   36.9421  -17.5699   35.5957 C   0  0  0  0  0  0  0  0  0  0  0  0
   37.5118  -18.4984   34.7299 C   0  0  0  0  0  0  0  0  0  0  0  0
   36.6723  -19.2106   33.9174 C   0  0  0  0  0  0  0  0  0  0  0  0
   35.2830  -19.0130   33.9559 C   0  0  0  0  0  0  0  0  0  0  0  0
   34.7525  -18.0890   34.8219 C   0  0  0  0  0  0  0  0  0  0  0  0
   38.9141  -18.7131   34.6554 N   0  0  0  0  0  0  0  0  0  0  0  0
   39.6784  -19.0639   35.8550 C   0  0  0  0  0  0  0  0  0  0  0  0
   41.0190  -19.6657   35.4369 C   0  0  0  0  0  0  0  0  0  0  0  0
   40.7898  -20.6730   34.3481 C   0  0  0  0  0  0  0  0  0  0  0  0
   40.4292  -19.8956   33.1001 C   0  0  0  0  0  0  0  0  0  0  0  0
   39.6776  -18.6216   33.4415 C   0  0  0  0  0  0  0  0  0  0  0  0
   41.9783  -21.4329   34.0727 N   0  0  0  0  0  0  0  0  0  0  0  0
   41.6788  -22.5027   33.1123 C   0  0  0  0  0  0  0  0  0  0  0  0
   43.0012  -23.1934   32.8275 C   0  0  0  0  0  0  0  0  0  0  0  0
   43.5233  -23.7863   33.9715 O   0  0  0  0  0  0  0  0  0  0  0  0
   43.8067  -22.7535   34.8575 C   0  0  0  0  0  0  0  0  0  0  0  0
   42.4906  -22.1149   35.2481 C   0  0  0  0  0  0  0  0  0  0  0  0
   35.2061  -15.0401   36.2656 C   0  0  0  0  0  0  0  0  0  0  0  0
   35.0266  -16.4210   36.5265 O   0  0  0  0  0  0  0  0  0  0  0  0
 42 43  1  0  0  0
 43 24  1  0  0  0
 24 25  2  0  0  0
 25 26  1  0  0  0
 26 27  2  0  0  0
 27 28  1  0  0  0
 28 29  2  0  0  0
 29  1  1  0  0  0
  1  3  1  0  0  0
  3  4  2  0  0  0
  4  5  1  0  0  0
  5  6  2  0  0  0
  6  7  1  0  0  0
  6  8  1  0  0  0
  8 10  1  0  0  0
 10 12  1  0  0  0
 12 13  2  0  0  0
 13 14  1  0  0  0
 14 15  2  0  0  0
 15 16  1  0  0  0
 16 17  2  0  0  0
 17 18  1  0  0  0
 18 19  2  0  0  0
 18 20  2  0  0  0
 18 21  1  0  0  0
 21 22  1  0  0  0
 21 23  1  0  0  0
  8  9  2  0  0  0
 26 30  1  0  0  0
 30 31  1  0  0  0
 31 32  1  0  0  0
 32 33  1  0  0  0
 33 34  1  0  0  0
 34 35  1  0  0  0
 33 36  1  0  0  0
 36 37  1  0  0  0
 37 38  1  0  0  0
 38 39  1  0  0  0
 39 40  1  0  0  0
 40 41  1  0  0  0
 29 24  1  0  0  0
  9  3  1  0  0  0
 35 30  1  0  0  0
 41 36  1  0  0  0
 17 12  1  0  0  0
  1  2  1  0  0  0
 10 11  1  0  0  0
M  END
> <minimizedAffinity>
-6.03702

> <CNNscore>
0.4271163046

> <CNNaffinity>
6.8009705544

> <CNN_VS>
2.9048054218

> <CNNaffinity_variance>
0.2871210277

$$$$
[H]c1nc(N([H])c2c([H])c([H])c(N3C([H])([H])C([H])([H])C([H])(N4C([H])([H])C([H])([H])OC([H])([H])C4([H])[H])C([H])([H])C3([H])[H])c([H])c2OC([H])([H])[H])nc(N([H])c2c([H])c([H])c([H])c([H])c2S(=O)(=O)C([H])(C([H])([H])[H])C([H])([H])[H])c1Cl


 43 47  0  0  0  0  0  0  0  0999 V2000
   35.0183  -12.7434   37.0405 N   0  0  0  0  0  0  0  0  0  0  0  0
   35.8765  -12.0773   36.9263 H   0  0  0  0  0  0  0  0  0  0  0  0
   33.8155  -12.0689   37.3234 C   0  0  0  0  0  0  0  0  0  0  0  0
   33.8688  -10.6891   37.3513 N   0  0  0  0  0  0  0  0  0  0  0  0
   32.8285   -9.9126   37.5722 C   0  0  0  0  0  0  0  0  0  0  0  0
   31.5954  -10.4842   37.7923 C   0  0  0  0  0  0  0  0  0  0  0  0
   30.1709   -9.5287   38.0868 Cl  0  0  0  0  0  0  0  0  0  0  0  0
   31.4701  -11.8849   37.7763 C   0  0  0  0  0  0  0  0  0  0  0  0
   32.6100  -12.5789   37.5394 N   0  0  0  0  0  0  0  0  0  0  0  0
   30.2069  -12.4249   38.0298 N   0  0  0  0  0  0  0  0  0  0  0  0
   30.0632  -13.4204   37.6712 H   0  0  0  0  0  0  0  0  0  0  0  0
   29.0816  -11.8998   38.6952 C   0  0  0  0  0  0  0  0  0  0  0  0
   28.1738  -11.0705   38.0899 C   0  0  0  0  0  0  0  0  0  0  0  0
   27.1257  -10.5324   38.8060 C   0  0  0  0  0  0  0  0  0  0  0  0
   26.9488  -10.8008   40.1399 C   0  0  0  0  0  0  0  0  0  0  0  0
   27.8580  -11.6390   40.7703 C   0  0  0  0  0  0  0  0  0  0  0  0
   28.9077  -12.1811   40.0646 C   0  0  0  0  0  0  0  0  0  0  0  0
   29.9798  -13.2340   40.9335 S   0  0  0  0  0  0  0  0  0  0  0  0
   31.4324  -12.9807   40.6682 O   0  0  0  0  0  0  0  0  0  0  0  0
   29.8066  -12.9473   42.4303 O   0  0  0  0  0  0  0  0  0  0  0  0
   29.6037  -14.9287   40.6623 C   0  0  0  0  0  0  0  0  0  0  0  0
   29.4894  -15.6496   42.0301 C   0  0  0  0  0  0  0  0  0  0  0  0
   28.3491  -15.1459   39.8607 C   0  0  0  0  0  0  0  0  0  0  0  0
   36.4661  -14.5929   37.4847 C   0  0  0  0  0  0  0  0  0  0  0  0
   36.7302  -15.9380   37.3831 C   0  0  0  0  0  0  0  0  0  0  0  0
   35.8881  -16.8242   36.7185 C   0  0  0  0  0  0  0  0  0  0  0  0
   34.7530  -16.3172   36.1469 C   0  0  0  0  0  0  0  0  0  0  0  0
   34.4466  -14.9497   36.2287 C   0  0  0  0  0  0  0  0  0  0  0  0
   35.2986  -14.1017   36.8920 C   0  0  0  0  0  0  0  0  0  0  0  0
   36.1751  -18.2109   36.6048 N   0  0  0  0  0  0  0  0  0  0  0  0
   37.5545  -18.6742   36.4350 C   0  0  0  0  0  0  0  0  0  0  0  0
   37.6316  -20.1586   36.7883 C   0  0  0  0  0  0  0  0  0  0  0  0
   36.8909  -20.3998   38.0711 C   0  0  0  0  0  0  0  0  0  0  0  0
   35.4160  -20.2615   37.7587 C   0  0  0  0  0  0  0  0  0  0  0  0
   35.1784  -19.2447   36.6568 C   0  0  0  0  0  0  0  0  0  0  0  0
   37.1185  -21.7281   38.5709 N   0  0  0  0  0  0  0  0  0  0  0  0
   37.1591  -22.6835   37.4565 C   0  0  0  0  0  0  0  0  0  0  0  0
   37.4798  -24.0340   38.0730 C   0  0  0  0  0  0  0  0  0  0  0  0
   36.4798  -24.4459   38.9466 O   0  0  0  0  0  0  0  0  0  0  0  0
   36.4697  -23.5325   39.9943 C   0  0  0  0  0  0  0  0  0  0  0  0
   36.0429  -22.1948   39.4278 C   0  0  0  0  0  0  0  0  0  0  0  0
   38.4457  -13.2108   37.4703 C   0  0  0  0  0  0  0  0  0  0  0  0
   37.3084  -13.7160   38.1473 O   0  0  0  0  0  0  0  0  0  0  0  0
 42 43  1  0  0  0
 43 24  1  0  0  0
 24 25  2  0  0  0
 25 26  1  0  0  0
 26 27  2  0  0  0
 27 28  1  0  0  0
 28 29  2  0  0  0
 29  1  1  0  0  0
  1  3  1  0  0  0
  3  4  2  0  0  0
  4  5  1  0  0  0
  5  6  2  0  0  0
  6  7  1  0  0  0
  6  8  1  0  0  0
  8 10  1  0  0  0
 10 12  1  0  0  0
 12 13  2  0  0  0
 13 14  1  0  0  0
 14 15  2  0  0  0
 15 16  1  0  0  0
 16 17  2  0  0  0
 17 18  1  0  0  0
 18 19  2  0  0  0
 18 20  2  0  0  0
 18 21  1  0  0  0
 21 22  1  0  0  0
 21 23  1  0  0  0
  8  9  2  0  0  0
 26 30  1  0  0  0
 30 31  1  0  0  0
 31 32  1  0  0  0
 32 33  1  0  0  0
 33 34  1  0  0  0
 34 35  1  0  0  0
 33 36  1  0  0  0
 36 37  1  0  0  0
 37 38  1  0  0  0
 38 39  1  0  0  0
 39 40  1  0  0  0
 40 41  1  0  0  0
 29 24  1  0  0  0
  9  3  1  0  0  0
 35 30  1  0  0  0
 41 36  1  0  0  0
 17 12  1  0  0  0
  1  2  1  0  0  0
 10 11  1  0  0  0
M  END
> <minimizedAffinity>
-8.80391

> <CNNscore>
0.4125542045

> <CNNaffinity>
7.4001412392

> <CNN_VS>
3.0529594421

> <CNNaffinity_variance>
0.0981644243

$$$$
[H]c1nc(N([H])c2c([H])c([H])c(N3C([H])([H])C([H])([H])C([H])(N4C([H])([H])C([H])([H])OC([H])([H])C4([H])[H])C([H])([H])C3([H])[H])c([H])c2OC([H])([H])[H])nc(N([H])c2c([H])c([H])c([H])c([H])c2S(=O)(=O)C([H])(C([H])([H])[H])C([H])([H])[H])c1Cl


 43 47  0  0  0  0  0  0  0  0999 V2000
   34.1563  -13.1876   37.7666 N   0  0  0  0  0  0  0  0  0  0  0  0
   34.8878  -12.4385   38.0779 H   0  0  0  0  0  0  0  0  0  0  0  0
   32.8273  -12.8382   38.0725 C   0  0  0  0  0  0  0  0  0  0  0  0
   32.1653  -12.0481   37.1533 N   0  0  0  0  0  0  0  0  0  0  0  0
   30.9134  -11.6594   37.2772 C   0  0  0  0  0  0  0  0  0  0  0  0
   30.1924  -12.0504   38.3831 C   0  0  0  0  0  0  0  0  0  0  0  0
   28.5324  -11.5837   38.6191 Cl  0  0  0  0  0  0  0  0  0  0  0  0
   30.8058  -12.8574   39.3581 C   0  0  0  0  0  0  0  0  0  0  0  0
   32.0975  -13.1931   39.1220 N   0  0  0  0  0  0  0  0  0  0  0  0
   30.0474  -13.2103   40.4769 N   0  0  0  0  0  0  0  0  0  0  0  0
   30.1284  -12.5404   41.3045 H   0  0  0  0  0  0  0  0  0  0  0  0
   29.1710  -14.2883   40.7108 C   0  0  0  0  0  0  0  0  0  0  0  0
   29.0713  -15.3671   39.8715 C   0  0  0  0  0  0  0  0  0  0  0  0
   28.1500  -16.3639   40.1133 C   0  0  0  0  0  0  0  0  0  0  0  0
   27.3031  -16.3188   41.1919 C   0  0  0  0  0  0  0  0  0  0  0  0
   27.3895  -15.2340   42.0535 C   0  0  0  0  0  0  0  0  0  0  0  0
   28.3055  -14.2338   41.8209 C   0  0  0  0  0  0  0  0  0  0  0  0
   28.3536  -12.9291   42.9649 S   0  0  0  0  0  0  0  0  0  0  0  0
   27.3922  -13.0799   44.1039 O   0  0  0  0  0  0  0  0  0  0  0  0
   29.7375  -12.9368   43.6262 O   0  0  0  0  0  0  0  0  0  0  0  0
   28.1339  -11.3661   42.1929 C   0  0  0  0  0  0  0  0  0  0  0  0
   26.8104  -11.3792   41.3855 C   0  0  0  0  0  0  0  0  0  0  0  0
   28.1350  -10.2125   43.1588 C   0  0  0  0  0  0  0  0  0  0  0  0
   36.0502  -14.5846   37.3475 C   0  0  0  0  0  0  0  0  0  0  0  0
   36.5790  -15.7198   36.7808 C   0  0  0  0  0  0  0  0  0  0  0  0
   35.8220  -16.6079   36.0230 C   0  0  0  0  0  0  0  0  0  0  0  0
   34.4958  -16.3228   35.8440 C   0  0  0  0  0  0  0  0  0  0  0  0
   33.9170  -15.1742   36.4065 C   0  0  0  0  0  0  0  0  0  0  0  0
   34.6918  -14.3179   37.1493 C   0  0  0  0  0  0  0  0  0  0  0  0
   36.3789  -17.7715   35.4280 N   0  0  0  0  0  0  0  0  0  0  0  0
   36.9337  -17.7220   34.0730 C   0  0  0  0  0  0  0  0  0  0  0  0
   37.8429  -18.9310   33.8593 C   0  0  0  0  0  0  0  0  0  0  0  0
   38.7388  -19.0919   35.0527 C   0  0  0  0  0  0  0  0  0  0  0  0
   37.8710  -19.5902   36.1887 C   0  0  0  0  0  0  0  0  0  0  0  0
   36.4566  -19.0492   36.0809 C   0  0  0  0  0  0  0  0  0  0  0  0
   39.7660  -20.0687   34.8144 N   0  0  0  0  0  0  0  0  0  0  0  0
   40.1115  -20.0957   33.3873 C   0  0  0  0  0  0  0  0  0  0  0  0
   41.2492  -21.0924   33.2498 C   0  0  0  0  0  0  0  0  0  0  0  0
   40.8508  -22.3741   33.6125 O   0  0  0  0  0  0  0  0  0  0  0  0
   40.5400  -22.3227   34.9664 C   0  0  0  0  0  0  0  0  0  0  0  0
   39.3341  -21.4205   35.1227 C   0  0  0  0  0  0  0  0  0  0  0  0
   38.0866  -13.3179   37.6258 C   0  0  0  0  0  0  0  0  0  0  0  0
   36.8089  -13.7044   38.1004 O   0  0  0  0  0  0  0  0  0  0  0  0
 42 43  1  0  0  0
 43 24  1  0  0  0
 24 25  2  0  0  0
 25 26  1  0  0  0
 26 27  2  0  0  0
 27 28  1  0  0  0
 28 29  2  0  0  0
 29  1  1  0  0  0
  1  3  1  0  0  0
  3  4  2  0  0  0
  4  5  1  0  0  0
  5  6  2  0  0  0
  6  7  1  0  0  0
  6  8  1  0  0  0
  8 10  1  0  0  0
 10 12  1  0  0  0
 12 13  2  0  0  0
 13 14  1  0  0  0
 14 15  2  0  0  0
 15 16  1  0  0  0
 16 17  2  0  0  0
 17 18  1  0  0  0
 18 19  2  0  0  0
 18 20  2  0  0  0
 18 21  1  0  0  0
 21 22  1  0  0  0
 21 23  1  0  0  0
  8  9  2  0  0  0
 26 30  1  0  0  0
 30 31  1  0  0  0
 31 32  1  0  0  0
 32 33  1  0  0  0
 33 34  1  0  0  0
 34 35  1  0  0  0
 33 36  1  0  0  0
 36 37  1  0  0  0
 37 38  1  0  0  0
 38 39  1  0  0  0
 39 40  1  0  0  0
 40 41  1  0  0  0
 29 24  1  0  0  0
  9  3  1  0  0  0
 35 30  1  0  0  0
 41 36  1  0  0  0
 17 12  1  0  0  0
  1  2  1  0  0  0
 10 11  1  0  0  0
M  END
> <minimizedAffinity>
-8.05630

> <CNNscore>
0.4025374353

> <CNNaffinity>
6.9546904564

> <CNN_VS>
2.7995233536

> <CNNaffinity_variance>
0.1874732524

$$$$
[H]c1nc(N([H])c2c([H])c([H])c(N3C([H])([H])C([H])([H])C([H])(N4C([H])([H])C([H])([H])OC([H])([H])C4([H])[H])C([H])([H])C3([H])[H])c([H])c2OC([H])([H])[H])nc(N([H])c2c([H])c([H])c([H])c([H])c2S(=O)(=O)C([H])(C([H])([H])[H])C([H])([H])[H])c1Cl


 43 47  0  0  0  0  0  0  0  0999 V2000
   34.1638  -13.0110   37.7914 N   0  0  0  0  0  0  0  0  0  0  0  0
   34.9094  -12.3661   38.2619 H   0  0  0  0  0  0  0  0  0  0  0  0
   32.8460  -12.5315   37.9148 C   0  0  0  0  0  0  0  0  0  0  0  0
   32.5629  -11.3274   37.3002 N   0  0  0  0  0  0  0  0  0  0  0  0
   31.3752  -10.7590   37.2979 C   0  0  0  0  0  0  0  0  0  0  0  0
   30.3287  -11.3815   37.9407 C   0  0  0  0  0  0  0  0  0  0  0  0
   28.7281  -10.6991   37.9797 Cl  0  0  0  0  0  0  0  0  0  0  0  0
   30.5477  -12.6117   38.5862 C   0  0  0  0  0  0  0  0  0  0  0  0
   31.8112  -13.0979   38.5216 N   0  0  0  0  0  0  0  0  0  0  0  0
   29.4657  -13.1969   39.2483 N   0  0  0  0  0  0  0  0  0  0  0  0
   28.9495  -13.9470   38.6906 H   0  0  0  0  0  0  0  0  0  0  0  0
   28.9359  -12.9914   40.5375 C   0  0  0  0  0  0  0  0  0  0  0  0
   28.8998  -11.7633   41.1447 C   0  0  0  0  0  0  0  0  0  0  0  0
   28.4297  -11.6293   42.4338 C   0  0  0  0  0  0  0  0  0  0  0  0
   27.9834  -12.7073   43.1559 C   0  0  0  0  0  0  0  0  0  0  0  0
   28.0118  -13.9594   42.5575 C   0  0  0  0  0  0  0  0  0  0  0  0
   28.4793  -14.1039   41.2713 C   0  0  0  0  0  0  0  0  0  0  0  0
   28.4563  -15.7049   40.6008 S   0  0  0  0  0  0  0  0  0  0  0  0
   27.7303  -15.8095   39.2945 O   0  0  0  0  0  0  0  0  0  0  0  0
   29.9023  -16.0945   40.2693 O   0  0  0  0  0  0  0  0  0  0  0  0
   27.8265  -16.8874   41.7374 C   0  0  0  0  0  0  0  0  0  0  0  0
   27.0259  -17.9639   40.9600 C   0  0  0  0  0  0  0  0  0  0  0  0
   28.8906  -17.5435   42.5746 C   0  0  0  0  0  0  0  0  0  0  0  0
   36.0217  -14.4615   37.3932 C   0  0  0  0  0  0  0  0  0  0  0  0
   36.5228  -15.6149   36.8382 C   0  0  0  0  0  0  0  0  0  0  0  0
   35.7461  -16.4883   36.0831 C   0  0  0  0  0  0  0  0  0  0  0  0
   34.4290  -16.1691   35.8949 C   0  0  0  0  0  0  0  0  0  0  0  0
   33.8784  -15.0010   36.4453 C   0  0  0  0  0  0  0  0  0  0  0  0
   34.6720  -14.1601   37.1857 C   0  0  0  0  0  0  0  0  0  0  0  0
   36.2746  -17.6711   35.5001 N   0  0  0  0  0  0  0  0  0  0  0  0
   36.8432  -17.6457   34.1501 C   0  0  0  0  0  0  0  0  0  0  0  0
   37.7190  -18.8817   33.9520 C   0  0  0  0  0  0  0  0  0  0  0  0
   38.5988  -19.0612   35.1548 C   0  0  0  0  0  0  0  0  0  0  0  0
   37.7064  -19.5274   36.2854 C   0  0  0  0  0  0  0  0  0  0  0  0
   36.3093  -18.9465   36.1611 C   0  0  0  0  0  0  0  0  0  0  0  0
   39.5994  -20.0686   34.9317 N   0  0  0  0  0  0  0  0  0  0  0  0
   40.6229  -19.5636   34.0076 C   0  0  0  0  0  0  0  0  0  0  0  0
   41.6673  -20.6608   33.8977 C   0  0  0  0  0  0  0  0  0  0  0  0
   41.1333  -21.8193   33.3449 O   0  0  0  0  0  0  0  0  0  0  0  0
   40.1771  -22.2808   34.2420 C   0  0  0  0  0  0  0  0  0  0  0  0
   39.0641  -21.2554   34.2883 C   0  0  0  0  0  0  0  0  0  0  0  0
   38.1260  -13.3254   37.7249 C   0  0  0  0  0  0  0  0  0  0  0  0
   36.7999  -13.5961   38.1434 O   0  0  0  0  0  0  0  0  0  0  0  0
 42 43  1  0  0  0
 43 24  1  0  0  0
 24 25  2  0  0  0
 25 26  1  0  0  0
 26 27  2  0  0  0
 27 28  1  0  0  0
 28 29  2  0  0  0
 29  1  1  0  0  0
  1  3  1  0  0  0
  3  4  2  0  0  0
  4  5  1  0  0  0
  5  6  2  0  0  0
  6  7  1  0  0  0
  6  8  1  0  0  0
  8 10  1  0  0  0
 10 12  1  0  0  0
 12 13  2  0  0  0
 13 14  1  0  0  0
 14 15  2  0  0  0
 15 16  1  0  0  0
 16 17  2  0  0  0
 17 18  1  0  0  0
 18 19  2  0  0  0
 18 20  2  0  0  0
 18 21  1  0  0  0
 21 22  1  0  0  0
 21 23  1  0  0  0
  8  9  2  0  0  0
 26 30  1  0  0  0
 30 31  1  0  0  0
 31 32  1  0  0  0
 32 33  1  0  0  0
 33 34  1  0  0  0
 34 35  1  0  0  0
 33 36  1  0  0  0
 36 37  1  0  0  0
 37 38  1  0  0  0
 38 39  1  0  0  0
 39 40  1  0  0  0
 40 41  1  0  0  0
 29 24  1  0  0  0
  9  3  1  0  0  0
 35 30  1  0  0  0
 41 36  1  0  0  0
 17 12  1  0  0  0
  1  2  1  0  0  0
 10 11  1  0  0  0
M  END
> <minimizedAffinity>
-8.36329

> <CNNscore>
0.3501861691

> <CNNaffinity>
6.9450235367

> <CNN_VS>
2.4320511818

> <CNNaffinity_variance>
0.2009117603

$$$$
[H]c1nc(N([H])c2c([H])c([H])c(N3C([H])([H])C([H])([H])C([H])(N4C([H])([H])C([H])([H])OC([H])([H])C4([H])[H])C([H])([H])C3([H])[H])c([H])c2OC([H])([H])[H])nc(N([H])c2c([H])c([H])c([H])c([H])c2S(=O)(=O)C([H])(C([H])([H])[H])C([H])([H])[H])c1Cl


 43 47  0  0  0  0  0  0  0  0999 V2000
   33.7370  -15.6503   36.0336 N   0  0  0  0  0  0  0  0  0  0  0  0
   32.8299  -15.9963   35.5327 H   0  0  0  0  0  0  0  0  0  0  0  0
   33.6152  -14.3650   36.5947 C   0  0  0  0  0  0  0  0  0  0  0  0
   34.5522  -13.4270   36.2079 N   0  0  0  0  0  0  0  0  0  0  0  0
   34.5600  -12.1759   36.6184 C   0  0  0  0  0  0  0  0  0  0  0  0
   33.5836  -11.7459   37.4888 C   0  0  0  0  0  0  0  0  0  0  0  0
   33.5205  -10.1082   38.0743 Cl  0  0  0  0  0  0  0  0  0  0  0  0
   32.5971  -12.6500   37.9220 C   0  0  0  0  0  0  0  0  0  0  0  0
   32.6926  -13.9103   37.4326 N   0  0  0  0  0  0  0  0  0  0  0  0
   31.6402  -12.1803   38.8249 N   0  0  0  0  0  0  0  0  0  0  0  0
   32.0139  -11.9557   39.7997 H   0  0  0  0  0  0  0  0  0  0  0  0
   30.2619  -11.9274   38.6798 C   0  0  0  0  0  0  0  0  0  0  0  0
   29.7352  -11.2388   37.6184 C   0  0  0  0  0  0  0  0  0  0  0  0
   28.3857  -10.9626   37.5587 C   0  0  0  0  0  0  0  0  0  0  0  0
   27.5224  -11.3603   38.5482 C   0  0  0  0  0  0  0  0  0  0  0  0
   28.0374  -12.0593   39.6312 C   0  0  0  0  0  0  0  0  0  0  0  0
   29.3828  -12.3399   39.7003 C   0  0  0  0  0  0  0  0  0  0  0  0
   29.9296  -13.2369   41.0822 S   0  0  0  0  0  0  0  0  0  0  0  0
   31.3525  -12.9639   41.4634 O   0  0  0  0  0  0  0  0  0  0  0  0
   29.1114  -12.7746   42.2944 O   0  0  0  0  0  0  0  0  0  0  0  0
   29.6777  -14.9650   40.8893 C   0  0  0  0  0  0  0  0  0  0  0  0
   29.4834  -15.6097   42.2858 C   0  0  0  0  0  0  0  0  0  0  0  0
   28.5144  -15.3077   39.9988 C   0  0  0  0  0  0  0  0  0  0  0  0
   34.7750  -17.5644   35.0470 C   0  0  0  0  0  0  0  0  0  0  0  0
   35.8462  -18.4226   34.9759 C   0  0  0  0  0  0  0  0  0  0  0  0
   36.9551  -18.3162   35.8098 C   0  0  0  0  0  0  0  0  0  0  0  0
   36.9620  -17.3081   36.7349 C   0  0  0  0  0  0  0  0  0  0  0  0
   35.8880  -16.4102   36.8393 C   0  0  0  0  0  0  0  0  0  0  0  0
   34.8086  -16.5425   36.0011 C   0  0  0  0  0  0  0  0  0  0  0  0
   38.0521  -19.2162   35.7405 N   0  0  0  0  0  0  0  0  0  0  0  0
   38.4193  -19.8458   34.4696 C   0  0  0  0  0  0  0  0  0  0  0  0
   39.8471  -20.3802   34.5693 C   0  0  0  0  0  0  0  0  0  0  0  0
   40.7239  -19.3328   35.1913 C   0  0  0  0  0  0  0  0  0  0  0  0
   40.3482  -19.2596   36.6561 C   0  0  0  0  0  0  0  0  0  0  0  0
   38.8762  -19.5666   36.8642 C   0  0  0  0  0  0  0  0  0  0  0  0
   42.1140  -19.6877   35.1044 N   0  0  0  0  0  0  0  0  0  0  0  0
   42.3065  -21.0747   35.5468 C   0  0  0  0  0  0  0  0  0  0  0  0
   43.7809  -21.3786   35.3456 C   0  0  0  0  0  0  0  0  0  0  0  0
   44.5819  -20.5664   36.1403 O   0  0  0  0  0  0  0  0  0  0  0  0
   44.3888  -19.2639   35.6948 C   0  0  0  0  0  0  0  0  0  0  0  0
   42.9502  -18.8920   35.9856 C   0  0  0  0  0  0  0  0  0  0  0  0
   32.7606  -18.7386   34.4206 C   0  0  0  0  0  0  0  0  0  0  0  0
   33.6741  -17.6757   34.2144 O   0  0  0  0  0  0  0  0  0  0  0  0
 42 43  1  0  0  0
 43 24  1  0  0  0
 24 25  2  0  0  0
 25 26  1  0  0  0
 26 27  2  0  0  0
 27 28  1  0  0  0
 28 29  2  0  0  0
 29  1  1  0  0  0
  1  3  1  0  0  0
  3  4  2  0  0  0
  4  5  1  0  0  0
  5  6  2  0  0  0
  6  7  1  0  0  0
  6  8  1  0  0  0
  8 10  1  0  0  0
 10 12  1  0  0  0
 12 13  2  0  0  0
 13 14  1  0  0  0
 14 15  2  0  0  0
 15 16  1  0  0  0
 16 17  2  0  0  0
 17 18  1  0  0  0
 18 19  2  0  0  0
 18 20  2  0  0  0
 18 21  1  0  0  0
 21 22  1  0  0  0
 21 23  1  0  0  0
  8  9  2  0  0  0
 26 30  1  0  0  0
 30 31  1  0  0  0
 31 32  1  0  0  0
 32 33  1  0  0  0
 33 34  1  0  0  0
 34 35  1  0  0  0
 33 36  1  0  0  0
 36 37  1  0  0  0
 37 38  1  0  0  0
 38 39  1  0  0  0
 39 40  1  0  0  0
 40 41  1  0  0  0
 29 24  1  0  0  0
  9  3  1  0  0  0
 35 30  1  0  0  0
 41 36  1  0  0  0
 17 12  1  0  0  0
  1  2  1  0  0  0
 10 11  1  0  0  0
M  END
> <minimizedAffinity>
-8.77119

> <CNNscore>
0.3061359823

> <CNNaffinity>
6.9374785423

> <CNN_VS>
2.1238117218

> <CNNaffinity_variance>
0.1095401868

$$$$
[H]c1nc(N([H])c2c([H])c([H])c(N3C([H])([H])C([H])([H])C([H])(N4C([H])([H])C([H])([H])OC([H])([H])C4([H])[H])C([H])([H])C3([H])[H])c([H])c2OC([H])([H])[H])nc(N([H])c2c([H])c([H])c([H])c([H])c2S(=O)(=O)C([H])(C([H])([H])[H])C([H])([H])[H])c1Cl


 43 47  0  0  0  0  0  0  0  0999 V2000
   34.9148  -12.5018   37.6529 N   0  0  0  0  0  0  0  0  0  0  0  0
   35.7890  -12.0344   38.1116 H   0  0  0  0  0  0  0  0  0  0  0  0
   33.7633  -11.6926   37.6819 C   0  0  0  0  0  0  0  0  0  0  0  0
   33.9102  -10.3875   37.2545 N   0  0  0  0  0  0  0  0  0  0  0  0
   32.9272   -9.5136   37.1936 C   0  0  0  0  0  0  0  0  0  0  0  0
   31.6602   -9.8966   37.5732 C   0  0  0  0  0  0  0  0  0  0  0  0
   30.3067   -8.8040   37.5176 Cl  0  0  0  0  0  0  0  0  0  0  0  0
   31.4402  -11.2127   38.0177 C   0  0  0  0  0  0  0  0  0  0  0  0
   32.5281  -12.0208   38.0377 N   0  0  0  0  0  0  0  0  0  0  0  0
   30.1458  -11.5528   38.4180 N   0  0  0  0  0  0  0  0  0  0  0  0
   29.3692  -11.2010   37.7750 H   0  0  0  0  0  0  0  0  0  0  0  0
   29.6717  -12.2989   39.5150 C   0  0  0  0  0  0  0  0  0  0  0  0
   30.1055  -13.5670   39.8011 C   0  0  0  0  0  0  0  0  0  0  0  0
   29.5604  -14.2774   40.8494 C   0  0  0  0  0  0  0  0  0  0  0  0
   28.5715  -13.7514   41.6419 C   0  0  0  0  0  0  0  0  0  0  0  0
   28.1194  -12.4680   41.3678 C   0  0  0  0  0  0  0  0  0  0  0  0
   28.6567  -11.7507   40.3237 C   0  0  0  0  0  0  0  0  0  0  0  0
   28.0422  -10.1469   40.0720 S   0  0  0  0  0  0  0  0  0  0  0  0
   29.0606   -9.1765   39.5564 O   0  0  0  0  0  0  0  0  0  0  0  0
   26.9844  -10.2193   38.9637 O   0  0  0  0  0  0  0  0  0  0  0  0
   27.2701   -9.5024   41.5127 C   0  0  0  0  0  0  0  0  0  0  0  0
   28.2459   -9.6257   42.7111 C   0  0  0  0  0  0  0  0  0  0  0  0
   26.8157   -8.0757   41.3648 C   0  0  0  0  0  0  0  0  0  0  0  0
   36.3570  -14.3931   37.4133 C   0  0  0  0  0  0  0  0  0  0  0  0
   36.5583  -15.6762   36.9634 C   0  0  0  0  0  0  0  0  0  0  0  0
   35.5912  -16.3908   36.2633 C   0  0  0  0  0  0  0  0  0  0  0  0
   34.3944  -15.7738   36.0207 C   0  0  0  0  0  0  0  0  0  0  0  0
   34.1487  -14.4646   36.4638 C   0  0  0  0  0  0  0  0  0  0  0  0
   35.1241  -13.7867   37.1523 C   0  0  0  0  0  0  0  0  0  0  0  0
   35.8119  -17.7114   35.7884 N   0  0  0  0  0  0  0  0  0  0  0  0
   35.7833  -18.0007   34.3525 C   0  0  0  0  0  0  0  0  0  0  0  0
   36.4766  -19.3379   34.0968 C   0  0  0  0  0  0  0  0  0  0  0  0
   37.7651  -19.3808   34.8653 C   0  0  0  0  0  0  0  0  0  0  0  0
   37.3994  -19.5287   36.3269 C   0  0  0  0  0  0  0  0  0  0  0  0
   36.0851  -18.8363   36.6397 C   0  0  0  0  0  0  0  0  0  0  0  0
   38.5672  -20.5127   34.4893 N   0  0  0  0  0  0  0  0  0  0  0  0
   38.7642  -21.3950   35.6465 C   0  0  0  0  0  0  0  0  0  0  0  0
   39.5493  -22.5900   35.1344 C   0  0  0  0  0  0  0  0  0  0  0  0
   40.8050  -22.2142   34.6708 O   0  0  0  0  0  0  0  0  0  0  0  0
   40.5901  -21.3901   33.5723 C   0  0  0  0  0  0  0  0  0  0  0  0
   39.9059  -20.1351   34.0716 C   0  0  0  0  0  0  0  0  0  0  0  0
   38.5874  -13.4735   37.5058 C   0  0  0  0  0  0  0  0  0  0  0  0
   37.3236  -13.6870   38.1093 O   0  0  0  0  0  0  0  0  0  0  0  0
 42 43  1  0  0  0
 43 24  1  0  0  0
 24 25  2  0  0  0
 25 26  1  0  0  0
 26 27  2  0  0  0
 27 28  1  0  0  0
 28 29  2  0  0  0
 29  1  1  0  0  0
  1  3  1  0  0  0
  3  4  2  0  0  0
  4  5  1  0  0  0
  5  6  2  0  0  0
  6  7  1  0  0  0
  6  8  1  0  0  0
  8 10  1  0  0  0
 10 12  1  0  0  0
 12 13  2  0  0  0
 13 14  1  0  0  0
 14 15  2  0  0  0
 15 16  1  0  0  0
 16 17  2  0  0  0
 17 18  1  0  0  0
 18 19  2  0  0  0
 18 20  2  0  0  0
 18 21  1  0  0  0
 21 22  1  0  0  0
 21 23  1  0  0  0
  8  9  2  0  0  0
 26 30  1  0  0  0
 30 31  1  0  0  0
 31 32  1  0  0  0
 32 33  1  0  0  0
 33 34  1  0  0  0
 34 35  1  0  0  0
 33 36  1  0  0  0
 36 37  1  0  0  0
 37 38  1  0  0  0
 38 39  1  0  0  0
 39 40  1  0  0  0
 40 41  1  0  0  0
 29 24  1  0  0  0
  9  3  1  0  0  0
 35 30  1  0  0  0
 41 36  1  0  0  0
 17 12  1  0  0  0
  1  2  1  0  0  0
 10 11  1  0  0  0
M  END
> <minimizedAffinity>
-7.65154

> <CNNscore>
0.3029028773

> <CNNaffinity>
7.1696496010

> <CNN_VS>
2.1717073917

> <CNNaffinity_variance>
0.0839017704

$$$$
[H]c1nc(N([H])c2c([H])c([H])c(N3C([H])([H])C([H])([H])C([H])(N4C([H])([H])C([H])([H])OC([H])([H])C4([H])[H])C([H])([H])C3([H])[H])c([H])c2OC([H])([H])[H])nc(N([H])c2c([H])c([H])c([H])c([H])c2S(=O)(=O)C([H])(C([H])([H])[H])C([H])([H])[H])c1Cl


 43 47  0  0  0  0  0  0  0  0999 V2000
   34.0913  -15.4662   35.7076 N   0  0  0  0  0  0  0  0  0  0  0  0
   33.5630  -15.5595   34.7561 H   0  0  0  0  0  0  0  0  0  0  0  0
   33.8504  -14.2466   36.3682 C   0  0  0  0  0  0  0  0  0  0  0  0
   34.6822  -13.1917   36.0479 N   0  0  0  0  0  0  0  0  0  0  0  0
   34.5712  -11.9814   36.5546 C   0  0  0  0  0  0  0  0  0  0  0  0
   33.5709  -11.7205   37.4640 C   0  0  0  0  0  0  0  0  0  0  0  0
   33.3535  -10.1473   38.1759 Cl  0  0  0  0  0  0  0  0  0  0  0  0
   32.6872  -12.7503   37.8337 C   0  0  0  0  0  0  0  0  0  0  0  0
   32.9006  -13.9532   37.2467 N   0  0  0  0  0  0  0  0  0  0  0  0
   31.7028  -12.4506   38.7785 N   0  0  0  0  0  0  0  0  0  0  0  0
   32.0266  -12.4961   39.7951 H   0  0  0  0  0  0  0  0  0  0  0  0
   30.3521  -12.0765   38.6356 C   0  0  0  0  0  0  0  0  0  0  0  0
   29.8821  -11.3653   37.5625 C   0  0  0  0  0  0  0  0  0  0  0  0
   28.5629  -10.9689   37.5044 C   0  0  0  0  0  0  0  0  0  0  0  0
   27.6744  -11.2659   38.5069 C   0  0  0  0  0  0  0  0  0  0  0  0
   28.1318  -11.9860   39.6017 C   0  0  0  0  0  0  0  0  0  0  0  0
   29.4467  -12.3862   39.6695 C   0  0  0  0  0  0  0  0  0  0  0  0
   29.9202  -13.3002   41.0672 S   0  0  0  0  0  0  0  0  0  0  0  0
   31.3322  -13.0582   41.5055 O   0  0  0  0  0  0  0  0  0  0  0  0
   29.0643  -12.8262   42.2486 O   0  0  0  0  0  0  0  0  0  0  0  0
   29.6408  -15.0218   40.8557 C   0  0  0  0  0  0  0  0  0  0  0  0
   29.4993  -15.6890   42.2481 C   0  0  0  0  0  0  0  0  0  0  0  0
   28.4366  -15.3367   40.0105 C   0  0  0  0  0  0  0  0  0  0  0  0
   36.1518  -16.2971   36.5896 C   0  0  0  0  0  0  0  0  0  0  0  0
   36.9273  -17.3644   36.9752 C   0  0  0  0  0  0  0  0  0  0  0  0
   36.5072  -18.6854   36.8534 C   0  0  0  0  0  0  0  0  0  0  0  0
   35.2660  -18.9129   36.3245 C   0  0  0  0  0  0  0  0  0  0  0  0
   34.4428  -17.8505   35.9193 C   0  0  0  0  0  0  0  0  0  0  0  0
   34.8871  -16.5583   36.0530 C   0  0  0  0  0  0  0  0  0  0  0  0
   37.3203  -19.7842   37.2403 N   0  0  0  0  0  0  0  0  0  0  0  0
   37.0073  -20.5534   38.4473 C   0  0  0  0  0  0  0  0  0  0  0  0
   37.7277  -21.8992   38.3846 C   0  0  0  0  0  0  0  0  0  0  0  0
   37.5398  -22.4967   37.0206 C   0  0  0  0  0  0  0  0  0  0  0  0
   38.3840  -21.6812   36.0645 C   0  0  0  0  0  0  0  0  0  0  0  0
   38.4708  -20.2308   36.5043 C   0  0  0  0  0  0  0  0  0  0  0  0
   37.9993  -23.8577   36.9722 N   0  0  0  0  0  0  0  0  0  0  0  0
   39.0882  -24.0545   37.9377 C   0  0  0  0  0  0  0  0  0  0  0  0
   39.4493  -25.5281   37.8683 C   0  0  0  0  0  0  0  0  0  0  0  0
   39.9309  -25.8763   36.6114 O   0  0  0  0  0  0  0  0  0  0  0  0
   38.8801  -25.6909   35.7205 C   0  0  0  0  0  0  0  0  0  0  0  0
   38.5704  -24.2092   35.6840 C   0  0  0  0  0  0  0  0  0  0  0  0
   37.4415  -14.6390   37.7797 C   0  0  0  0  0  0  0  0  0  0  0  0
   36.5757  -14.9846   36.7131 O   0  0  0  0  0  0  0  0  0  0  0  0
 42 43  1  0  0  0
 43 24  1  0  0  0
 24 25  2  0  0  0
 25 26  1  0  0  0
 26 27  2  0  0  0
 27 28  1  0  0  0
 28 29  2  0  0  0
 29  1  1  0  0  0
  1  3  1  0  0  0
  3  4  2  0  0  0
  4  5  1  0  0  0
  5  6  2  0  0  0
  6  7  1  0  0  0
  6  8  1  0  0  0
  8 10  1  0  0  0
 10 12  1  0  0  0
 12 13  2  0  0  0
 13 14  1  0  0  0
 14 15  2  0  0  0
 15 16  1  0  0  0
 16 17  2  0  0  0
 17 18  1  0  0  0
 18 19  2  0  0  0
 18 20  2  0  0  0
 18 21  1  0  0  0
 21 22  1  0  0  0
 21 23  1  0  0  0
  8  9  2  0  0  0
 26 30  1  0  0  0
 30 31  1  0  0  0
 31 32  1  0  0  0
 32 33  1  0  0  0
 33 34  1  0  0  0
 34 35  1  0  0  0
 33 36  1  0  0  0
 36 37  1  0  0  0
 37 38  1  0  0  0
 38 39  1  0  0  0
 39 40  1  0  0  0
 40 41  1  0  0  0
 29 24  1  0  0  0
  9  3  1  0  0  0
 35 30  1  0  0  0
 41 36  1  0  0  0
 17 12  1  0  0  0
  1  2  1  0  0  0
 10 11  1  0  0  0
M  END
> <minimizedAffinity>
-7.77718

> <CNNscore>
0.2935625315

> <CNNaffinity>
6.8526792526

> <CNN_VS>
2.0116899014

> <CNNaffinity_variance>
0.2822284400

$$$$
[H]c1nc(N([H])c2c([H])c([H])c(C(F)(F)F)c([H])c2OC([H])([H])[H])nc(N([H])c2c([H])c([H])c(C(=O)N3C([H])([H])C([H])([H])N(C([H])([H])[H])C([H])([H])C3([H])[H])c([H])c2OC([H])([H])[H])c1Cl


 40 43  0  0  0  0  0  0  0  0999 V2000
   32.9559  -12.6859   36.8426 C   0  0  0  0  0  0  0  0  0  0  0  0
   33.8205  -11.5966   36.9290 N   0  0  0  0  0  0  0  0  0  0  0  0
   35.1286  -11.8466   37.0875 C   0  0  0  0  0  0  0  0  0  0  0  0
   35.6343  -13.1108   37.1679 C   0  0  0  0  0  0  0  0  0  0  0  0
   37.3539  -13.3620   37.4003 Cl  0  0  0  0  0  0  0  0  0  0  0  0
   34.7879  -14.1779   37.0866 C   0  0  0  0  0  0  0  0  0  0  0  0
   33.4875  -13.8900   36.9272 N   0  0  0  0  0  0  0  0  0  0  0  0
   31.5805  -12.3634   36.5792 N   0  0  0  0  0  0  0  0  0  0  0  0
   31.1786  -12.5640   35.6355 H   0  0  0  0  0  0  0  0  0  0  0  0
   30.5359  -10.4651   37.6273 C   0  0  0  0  0  0  0  0  0  0  0  0
   29.6410   -9.9337   38.5619 C   0  0  0  0  0  0  0  0  0  0  0  0
   29.0524  -10.7797   39.4875 C   0  0  0  0  0  0  0  0  0  0  0  0
   29.3434  -12.1374   39.4887 C   0  0  0  0  0  0  0  0  0  0  0  0
   30.2314  -12.6363   38.5481 C   0  0  0  0  0  0  0  0  0  0  0  0
   30.8176  -11.7662   37.6195 C   0  0  0  0  0  0  0  0  0  0  0  0
   28.0757  -10.2739   40.4798 C   0  0  0  0  0  0  0  0  0  0  0  0
   27.6127   -9.0273   40.0392 F   0  0  0  0  0  0  0  0  0  0  0  0
   27.0150  -11.1141   40.6962 F   0  0  0  0  0  0  0  0  0  0  0  0
   28.7772  -10.0438   41.6451 F   0  0  0  0  0  0  0  0  0  0  0  0
   32.0103   -8.6173   37.1796 C   0  0  0  0  0  0  0  0  0  0  0  0
   31.1226   -9.5878   36.7139 O   0  0  0  0  0  0  0  0  0  0  0  0
   35.3058  -15.4867   37.0561 N   0  0  0  0  0  0  0  0  0  0  0  0
   36.0900  -15.6884   37.7783 H   0  0  0  0  0  0  0  0  0  0  0  0
   34.9805  -16.5415   36.1995 C   0  0  0  0  0  0  0  0  0  0  0  0
   33.7657  -16.4860   35.4896 C   0  0  0  0  0  0  0  0  0  0  0  0
   33.3355  -17.6204   34.8417 C   0  0  0  0  0  0  0  0  0  0  0  0
   34.0470  -18.7743   34.8682 C   0  0  0  0  0  0  0  0  0  0  0  0
   35.2609  -18.8087   35.5776 C   0  0  0  0  0  0  0  0  0  0  0  0
   35.7128  -17.6943   36.2307 C   0  0  0  0  0  0  0  0  0  0  0  0
   33.4595  -20.0239   34.3782 C   0  0  0  0  0  0  0  0  0  0  0  0
   33.6872  -20.4083   33.2180 O   0  0  0  0  0  0  0  0  0  0  0  0
   32.6193  -20.8363   35.1810 N   0  0  0  0  0  0  0  0  0  0  0  0
   31.9034  -21.9392   34.5498 C   0  0  0  0  0  0  0  0  0  0  0  0
   31.9254  -23.1871   35.3782 C   0  0  0  0  0  0  0  0  0  0  0  0
   31.9862  -23.0057   36.7826 N   0  0  0  0  0  0  0  0  0  0  0  0
   30.7074  -22.9807   37.4319 C   0  0  0  0  0  0  0  0  0  0  0  0
   32.8836  -22.0361   37.2899 C   0  0  0  0  0  0  0  0  0  0  0  0
   32.6165  -20.6856   36.6097 C   0  0  0  0  0  0  0  0  0  0  0  0
   36.9223  -17.7988   36.9001 O   0  0  0  0  0  0  0  0  0  0  0  0
   38.0193  -18.5558   36.5266 C   0  0  0  0  0  0  0  0  0  0  0  0
 20 21  1  0  0  0
 21 10  1  0  0  0
 10 11  2  0  0  0
 11 12  1  0  0  0
 12 13  2  0  0  0
 13 14  1  0  0  0
 14 15  2  0  0  0
 15  8  1  0  0  0
  8  1  1  0  0  0
  1  2  2  0  0  0
  2  3  1  0  0  0
  3  4  2  0  0  0
  4  5  1  0  0  0
  4  6  1  0  0  0
  6 22  1  0  0  0
 22 24  1  0  0  0
 24 25  2  0  0  0
 25 26  1  0  0  0
 26 27  2  0  0  0
 27 28  1  0  0  0
 28 29  2  0  0  0
 29 39  1  0  0  0
 39 40  1  0  0  0
 27 30  1  0  0  0
 30 31  2  0  0  0
 30 32  1  0  0  0
 32 33  1  0  0  0
 33 34  1  0  0  0
 34 35  1  0  0  0
 35 36  1  0  0  0
 35 37  1  0  0  0
 37 38  1  0  0  0
  6  7  2  0  0  0
 12 16  1  0  0  0
 16 17  1  0  0  0
 16 18  1  0  0  0
 16 19  1  0  0  0
 15 10  1  0  0  0
  7  1  1  0  0  0
 29 24  1  0  0  0
 38 32  1  0  0  0
  8  9  1  0  0  0
 22 23  1  0  0  0
M  END
> <minimizedAffinity>
-8.31443

> <CNNscore>
0.3322796226

> <CNNaffinity>
6.9189481735

> <CNN_VS>
2.2990255356

> <CNNaffinity_variance>
0.0722274631

$$$$
[H]c1nc(N([H])c2c([H])c([H])c(C(F)(F)F)c([H])c2OC([H])([H])[H])nc(N([H])c2c([H])c([H])c(C(=O)N3C([H])([H])C([H])([H])N(C([H])([H])[H])C([H])([H])C3([H])[H])c([H])c2OC([H])([H])[H])c1Cl


 40 43  0  0  0  0  0  0  0  0999 V2000
   32.2641  -12.9517   38.3956 C   0  0  0  0  0  0  0  0  0  0  0  0
   32.5308  -11.5857   38.4633 N   0  0  0  0  0  0  0  0  0  0  0  0
   33.5420  -11.1078   37.7233 C   0  0  0  0  0  0  0  0  0  0  0  0
   34.3083  -11.9005   36.9203 C   0  0  0  0  0  0  0  0  0  0  0  0
   35.6308  -11.2102   35.9992 Cl  0  0  0  0  0  0  0  0  0  0  0  0
   34.0498  -13.2387   36.8559 C   0  0  0  0  0  0  0  0  0  0  0  0
   33.0309  -13.6806   37.6082 N   0  0  0  0  0  0  0  0  0  0  0  0
   31.1132  -13.3936   39.1340 N   0  0  0  0  0  0  0  0  0  0  0  0
   31.0786  -14.3757   39.4899 H   0  0  0  0  0  0  0  0  0  0  0  0
   29.6013  -12.1797   40.5602 C   0  0  0  0  0  0  0  0  0  0  0  0
   28.6804  -11.1445   40.7525 C   0  0  0  0  0  0  0  0  0  0  0  0
   28.2354  -10.4264   39.6547 C   0  0  0  0  0  0  0  0  0  0  0  0
   28.6968  -10.7264   38.3800 C   0  0  0  0  0  0  0  0  0  0  0  0
   29.6123  -11.7555   38.2204 C   0  0  0  0  0  0  0  0  0  0  0  0
   30.0514  -12.4715   39.3418 C   0  0  0  0  0  0  0  0  0  0  0  0
   27.2834   -9.3015   39.8059 C   0  0  0  0  0  0  0  0  0  0  0  0
   26.2477   -9.4798   38.8796 F   0  0  0  0  0  0  0  0  0  0  0  0
   26.7629   -9.1775   41.0674 F   0  0  0  0  0  0  0  0  0  0  0  0
   27.9569   -8.1584   39.4282 F   0  0  0  0  0  0  0  0  0  0  0  0
   29.1459  -13.0532   42.7553 C   0  0  0  0  0  0  0  0  0  0  0  0
   30.0238  -12.8939   41.6826 O   0  0  0  0  0  0  0  0  0  0  0  0
   34.7582  -14.0498   35.9491 N   0  0  0  0  0  0  0  0  0  0  0  0
   34.7909  -13.6804   34.9295 H   0  0  0  0  0  0  0  0  0  0  0  0
   35.3838  -15.2791   36.1720 C   0  0  0  0  0  0  0  0  0  0  0  0
   34.8779  -16.4226   35.5244 C   0  0  0  0  0  0  0  0  0  0  0  0
   35.3340  -17.6563   35.9264 C   0  0  0  0  0  0  0  0  0  0  0  0
   36.2499  -17.7940   36.9166 C   0  0  0  0  0  0  0  0  0  0  0  0
   36.7480  -16.6400   37.5477 C   0  0  0  0  0  0  0  0  0  0  0  0
   36.3120  -15.4000   37.1670 C   0  0  0  0  0  0  0  0  0  0  0  0
   36.5396  -19.1125   37.4862 C   0  0  0  0  0  0  0  0  0  0  0  0
   35.7142  -19.6650   38.2338 O   0  0  0  0  0  0  0  0  0  0  0  0
   37.7477  -19.8067   37.2230 N   0  0  0  0  0  0  0  0  0  0  0  0
   38.0492  -21.0036   38.0000 C   0  0  0  0  0  0  0  0  0  0  0  0
   38.6039  -22.1108   37.1571 C   0  0  0  0  0  0  0  0  0  0  0  0
   39.3510  -21.7173   36.0187 N   0  0  0  0  0  0  0  0  0  0  0  0
   40.7637  -21.6141   36.2449 C   0  0  0  0  0  0  0  0  0  0  0  0
   38.8406  -20.6681   35.2179 C   0  0  0  0  0  0  0  0  0  0  0  0
   38.5629  -19.4408   36.0981 C   0  0  0  0  0  0  0  0  0  0  0  0
   36.8546  -14.3075   37.8259 O   0  0  0  0  0  0  0  0  0  0  0  0
   37.9632  -13.5711   37.4459 C   0  0  0  0  0  0  0  0  0  0  0  0
 20 21  1  0  0  0
 21 10  1  0  0  0
 10 11  2  0  0  0
 11 12  1  0  0  0
 12 13  2  0  0  0
 13 14  1  0  0  0
 14 15  2  0  0  0
 15  8  1  0  0  0
  8  1  1  0  0  0
  1  2  2  0  0  0
  2  3  1  0  0  0
  3  4  2  0  0  0
  4  5  1  0  0  0
  4  6  1  0  0  0
  6 22  1  0  0  0
 22 24  1  0  0  0
 24 25  2  0  0  0
 25 26  1  0  0  0
 26 27  2  0  0  0
 27 28  1  0  0  0
 28 29  2  0  0  0
 29 39  1  0  0  0
 39 40  1  0  0  0
 27 30  1  0  0  0
 30 31  2  0  0  0
 30 32  1  0  0  0
 32 33  1  0  0  0
 33 34  1  0  0  0
 34 35  1  0  0  0
 35 36  1  0  0  0
 35 37  1  0  0  0
 37 38  1  0  0  0
  6  7  2  0  0  0
 12 16  1  0  0  0
 16 17  1  0  0  0
 16 18  1  0  0  0
 16 19  1  0  0  0
 15 10  1  0  0  0
  7  1  1  0  0  0
 29 24  1  0  0  0
 38 32  1  0  0  0
  8  9  1  0  0  0
 22 23  1  0  0  0
M  END
> <minimizedAffinity>
-8.75834

> <CNNscore>
0.3286279738

> <CNNaffinity>
6.7992300987

> <CNN_VS>
2.2344172001

> <CNNaffinity_variance>
0.1470217258

$$$$
[H]c1nc(N([H])c2c([H])c([H])c(C(F)(F)F)c([H])c2OC([H])([H])[H])nc(N([H])c2c([H])c([H])c(C(=O)N3C([H])([H])C([H])([H])N(C([H])([H])[H])C([H])([H])C3([H])[H])c([H])c2OC([H])([H])[H])c1Cl


 40 43  0  0  0  0  0  0  0  0999 V2000
   30.9888  -11.3364   37.9420 C   0  0  0  0  0  0  0  0  0  0  0  0
   30.8157   -9.9624   37.7875 N   0  0  0  0  0  0  0  0  0  0  0  0
   31.8765   -9.2368   37.4044 C   0  0  0  0  0  0  0  0  0  0  0  0
   33.1011   -9.7882   37.1662 C   0  0  0  0  0  0  0  0  0  0  0  0
   34.4502   -8.7738   36.6918 Cl  0  0  0  0  0  0  0  0  0  0  0  0
   33.2723  -11.1330   37.3203 C   0  0  0  0  0  0  0  0  0  0  0  0
   32.1897  -11.8265   37.7031 N   0  0  0  0  0  0  0  0  0  0  0  0
   29.7994  -12.0767   38.2615 N   0  0  0  0  0  0  0  0  0  0  0  0
   29.2289  -12.4887   37.4886 H   0  0  0  0  0  0  0  0  0  0  0  0
   28.4121  -11.5384   40.1533 C   0  0  0  0  0  0  0  0  0  0  0  0
   27.9652  -11.8154   41.4495 C   0  0  0  0  0  0  0  0  0  0  0  0
   28.6061  -12.7968   42.1876 C   0  0  0  0  0  0  0  0  0  0  0  0
   29.6766  -13.4990   41.6502 C   0  0  0  0  0  0  0  0  0  0  0  0
   30.0953  -13.2053   40.3614 C   0  0  0  0  0  0  0  0  0  0  0  0
   29.4356  -12.2094   39.6292 C   0  0  0  0  0  0  0  0  0  0  0  0
   28.1545  -13.1501   43.5536 C   0  0  0  0  0  0  0  0  0  0  0  0
   27.2117  -12.1972   43.9608 F   0  0  0  0  0  0  0  0  0  0  0  0
   27.6193  -14.4073   43.6561 F   0  0  0  0  0  0  0  0  0  0  0  0
   29.2468  -13.0024   44.3830 F   0  0  0  0  0  0  0  0  0  0  0  0
   27.8600   -9.2141   39.8679 C   0  0  0  0  0  0  0  0  0  0  0  0
   27.7550  -10.5368   39.4367 O   0  0  0  0  0  0  0  0  0  0  0  0
   34.4980  -11.7314   36.9714 N   0  0  0  0  0  0  0  0  0  0  0  0
   35.3436  -11.0533   36.9219 H   0  0  0  0  0  0  0  0  0  0  0  0
   34.7642  -13.0624   36.6402 C   0  0  0  0  0  0  0  0  0  0  0  0
   33.6912  -13.8933   36.2646 C   0  0  0  0  0  0  0  0  0  0  0  0
   33.9142  -15.2475   36.1751 C   0  0  0  0  0  0  0  0  0  0  0  0
   35.1285  -15.7925   36.4336 C   0  0  0  0  0  0  0  0  0  0  0  0
   36.1896  -14.9459   36.8015 C   0  0  0  0  0  0  0  0  0  0  0  0
   35.9957  -13.5947   36.8975 C   0  0  0  0  0  0  0  0  0  0  0  0
   35.2818  -17.2438   36.5647 C   0  0  0  0  0  0  0  0  0  0  0  0
   36.0885  -17.7151   37.3848 O   0  0  0  0  0  0  0  0  0  0  0  0
   34.5389  -18.1617   35.7797 N   0  0  0  0  0  0  0  0  0  0  0  0
   34.9096  -19.5718   35.8159 C   0  0  0  0  0  0  0  0  0  0  0  0
   33.7182  -20.4772   35.8866 C   0  0  0  0  0  0  0  0  0  0  0  0
   32.5336  -20.0029   35.2696 N   0  0  0  0  0  0  0  0  0  0  0  0
   32.3682  -20.4204   33.9073 C   0  0  0  0  0  0  0  0  0  0  0  0
   32.1667  -18.6529   35.4832 C   0  0  0  0  0  0  0  0  0  0  0  0
   33.3415  -17.7376   35.1089 C   0  0  0  0  0  0  0  0  0  0  0  0
   37.0894  -12.8212   37.2547 O   0  0  0  0  0  0  0  0  0  0  0  0
   38.3753  -13.2640   37.5120 C   0  0  0  0  0  0  0  0  0  0  0  0
 20 21  1  0  0  0
 21 10  1  0  0  0
 10 11  2  0  0  0
 11 12  1  0  0  0
 12 13  2  0  0  0
 13 14  1  0  0  0
 14 15  2  0  0  0
 15  8  1  0  0  0
  8  1  1  0  0  0
  1  2  2  0  0  0
  2  3  1  0  0  0
  3  4  2  0  0  0
  4  5  1  0  0  0
  4  6  1  0  0  0
  6 22  1  0  0  0
 22 24  1  0  0  0
 24 25  2  0  0  0
 25 26  1  0  0  0
 26 27  2  0  0  0
 27 28  1  0  0  0
 28 29  2  0  0  0
 29 39  1  0  0  0
 39 40  1  0  0  0
 27 30  1  0  0  0
 30 31  2  0  0  0
 30 32  1  0  0  0
 32 33  1  0  0  0
 33 34  1  0  0  0
 34 35  1  0  0  0
 35 36  1  0  0  0
 35 37  1  0  0  0
 37 38  1  0  0  0
  6  7  2  0  0  0
 12 16  1  0  0  0
 16 17  1  0  0  0
 16 18  1  0  0  0
 16 19  1  0  0  0
 15 10  1  0  0  0
  7  1  1  0  0  0
 29 24  1  0  0  0
 38 32  1  0  0  0
  8  9  1  0  0  0
 22 23  1  0  0  0
M  END
> <minimizedAffinity>
-9.08957

> <CNNscore>
0.3215805590

> <CNNaffinity>
7.2654976845

> <CNN_VS>
2.3364427090

> <CNNaffinity_variance>
0.0763496980

$$$$
[H]c1nc(N([H])c2c([H])c([H])c(C(F)(F)F)c([H])c2OC([H])([H])[H])nc(N([H])c2c([H])c([H])c(C(=O)N3C([H])([H])C([H])([H])N(C([H])([H])[H])C([H])([H])C3([H])[H])c([H])c2OC([H])([H])[H])c1Cl


 40 43  0  0  0  0  0  0  0  0999 V2000
   31.1294  -11.1956   37.8061 C   0  0  0  0  0  0  0  0  0  0  0  0
   31.0121   -9.8115   37.6957 N   0  0  0  0  0  0  0  0  0  0  0  0
   32.1024   -9.1173   37.3381 C   0  0  0  0  0  0  0  0  0  0  0  0
   33.3045   -9.7096   37.0844 C   0  0  0  0  0  0  0  0  0  0  0  0
   34.6947   -8.7357   36.6453 Cl  0  0  0  0  0  0  0  0  0  0  0  0
   33.4210  -11.0645   37.1953 C   0  0  0  0  0  0  0  0  0  0  0  0
   32.3103  -11.7258   37.5536 N   0  0  0  0  0  0  0  0  0  0  0  0
   29.9102  -11.8974   38.0995 N   0  0  0  0  0  0  0  0  0  0  0  0
   29.6343  -12.7146   37.5092 H   0  0  0  0  0  0  0  0  0  0  0  0
   29.2202  -11.9600   40.4045 C   0  0  0  0  0  0  0  0  0  0  0  0
   28.5564  -11.3783   41.4898 C   0  0  0  0  0  0  0  0  0  0  0  0
   27.7784  -10.2519   41.2784 C   0  0  0  0  0  0  0  0  0  0  0  0
   27.6587   -9.7043   40.0080 C   0  0  0  0  0  0  0  0  0  0  0  0
   28.3312  -10.3003   38.9520 C   0  0  0  0  0  0  0  0  0  0  0  0
   29.1135  -11.4392   39.1840 C   0  0  0  0  0  0  0  0  0  0  0  0
   27.0783   -9.5796   42.3974 C   0  0  0  0  0  0  0  0  0  0  0  0
   26.2485  -10.5207   43.0205 F   0  0  0  0  0  0  0  0  0  0  0  0
   27.9179   -9.0155   43.3218 F   0  0  0  0  0  0  0  0  0  0  0  0
   26.2470   -8.6338   41.8340 F   0  0  0  0  0  0  0  0  0  0  0  0
   29.9975  -13.6549   41.9251 C   0  0  0  0  0  0  0  0  0  0  0  0
   29.9879  -13.1007   40.6446 O   0  0  0  0  0  0  0  0  0  0  0  0
   34.6227  -11.7002   36.8294 N   0  0  0  0  0  0  0  0  0  0  0  0
   35.4796  -11.0422   36.7294 H   0  0  0  0  0  0  0  0  0  0  0  0
   34.8516  -13.0472   36.5372 C   0  0  0  0  0  0  0  0  0  0  0  0
   33.7610  -13.8505   36.1525 C   0  0  0  0  0  0  0  0  0  0  0  0
   33.9396  -15.2132   36.1012 C   0  0  0  0  0  0  0  0  0  0  0  0
   35.1272  -15.7923   36.4055 C   0  0  0  0  0  0  0  0  0  0  0  0
   36.2067  -14.9732   36.7819 C   0  0  0  0  0  0  0  0  0  0  0  0
   36.0569  -13.6143   36.8405 C   0  0  0  0  0  0  0  0  0  0  0  0
   35.2269  -17.2443   36.5751 C   0  0  0  0  0  0  0  0  0  0  0  0
   35.9897  -17.7220   37.4327 O   0  0  0  0  0  0  0  0  0  0  0  0
   34.4798  -18.1558   35.7869 N   0  0  0  0  0  0  0  0  0  0  0  0
   34.8012  -19.5762   35.8680 C   0  0  0  0  0  0  0  0  0  0  0  0
   33.5782  -20.4398   35.9193 C   0  0  0  0  0  0  0  0  0  0  0  0
   32.4314  -19.9417   35.2518 N   0  0  0  0  0  0  0  0  0  0  0  0
   32.2969  -20.3863   33.8947 C   0  0  0  0  0  0  0  0  0  0  0  0
   32.1034  -18.5756   35.4217 C   0  0  0  0  0  0  0  0  0  0  0  0
   33.3201  -17.7089   35.0663 C   0  0  0  0  0  0  0  0  0  0  0  0
   37.1668  -12.8696   37.2089 O   0  0  0  0  0  0  0  0  0  0  0  0
   38.3888  -13.3534   37.6427 C   0  0  0  0  0  0  0  0  0  0  0  0
 20 21  1  0  0  0
 21 10  1  0  0  0
 10 11  2  0  0  0
 11 12  1  0  0  0
 12 13  2  0  0  0
 13 14  1  0  0  0
 14 15  2  0  0  0
 15  8  1  0  0  0
  8  1  1  0  0  0
  1  2  2  0  0  0
  2  3  1  0  0  0
  3  4  2  0  0  0
  4  5  1  0  0  0
  4  6  1  0  0  0
  6 22  1  0  0  0
 22 24  1  0  0  0
 24 25  2  0  0  0
 25 26  1  0  0  0
 26 27  2  0  0  0
 27 28  1  0  0  0
 28 29  2  0  0  0
 29 39  1  0  0  0
 39 40  1  0  0  0
 27 30  1  0  0  0
 30 31  2  0  0  0
 30 32  1  0  0  0
 32 33  1  0  0  0
 33 34  1  0  0  0
 34 35  1  0  0  0
 35 36  1  0  0  0
 35 37  1  0  0  0
 37 38  1  0  0  0
  6  7  2  0  0  0
 12 16  1  0  0  0
 16 17  1  0  0  0
 16 18  1  0  0  0
 16 19  1  0  0  0
 15 10  1  0  0  0
  7  1  1  0  0  0
 29 24  1  0  0  0
 38 32  1  0  0  0
  8  9  1  0  0  0
 22 23  1  0  0  0
M  END
> <minimizedAffinity>
-9.22097

> <CNNscore>
0.2868650556

> <CNNaffinity>
7.0960326195

> <CNN_VS>
2.0356037617

> <CNNaffinity_variance>
0.0890035257

$$$$
[H]c1nc(N([H])c2c([H])c([H])c(C(F)(F)F)c([H])c2OC([H])([H])[H])nc(N([H])c2c([H])c([H])c(C(=O)N3C([H])([H])C([H])([H])N(C([H])([H])[H])C([H])([H])C3([H])[H])c([H])c2OC([H])([H])[H])c1Cl


 40 43  0  0  0  0  0  0  0  0999 V2000
   32.8347  -12.9092   36.7588 C   0  0  0  0  0  0  0  0  0  0  0  0
   33.6572  -11.9963   37.4159 N   0  0  0  0  0  0  0  0  0  0  0  0
   34.9602  -12.2939   37.5260 C   0  0  0  0  0  0  0  0  0  0  0  0
   35.5000  -13.4426   37.0266 C   0  0  0  0  0  0  0  0  0  0  0  0
   37.2090  -13.7774   37.2294 Cl  0  0  0  0  0  0  0  0  0  0  0  0
   34.6948  -14.3384   36.3858 C   0  0  0  0  0  0  0  0  0  0  0  0
   33.3982  -14.0071   36.2935 N   0  0  0  0  0  0  0  0  0  0  0  0
   31.4687  -12.4974   36.5869 N   0  0  0  0  0  0  0  0  0  0  0  0
   31.0219  -12.5836   35.6460 H   0  0  0  0  0  0  0  0  0  0  0  0
   30.4114  -10.6935   37.7791 C   0  0  0  0  0  0  0  0  0  0  0  0
   29.5823  -10.2409   38.8109 C   0  0  0  0  0  0  0  0  0  0  0  0
   29.1481  -11.1410   39.7700 C   0  0  0  0  0  0  0  0  0  0  0  0
   29.5275  -12.4754   39.7098 C   0  0  0  0  0  0  0  0  0  0  0  0
   30.3470  -12.8960   38.6735 C   0  0  0  0  0  0  0  0  0  0  0  0
   30.7769  -11.9720   37.7121 C   0  0  0  0  0  0  0  0  0  0  0  0
   28.2453  -10.7206   40.8667 C   0  0  0  0  0  0  0  0  0  0  0  0
   28.1904  -11.7572   41.8075 F   0  0  0  0  0  0  0  0  0  0  0  0
   28.6199   -9.5543   41.4809 F   0  0  0  0  0  0  0  0  0  0  0  0
   26.9821  -10.6158   40.3224 F   0  0  0  0  0  0  0  0  0  0  0  0
   31.8217   -8.8350   37.1913 C   0  0  0  0  0  0  0  0  0  0  0  0
   30.8429   -9.7626   36.8329 O   0  0  0  0  0  0  0  0  0  0  0  0
   35.2550  -15.4731   35.7687 N   0  0  0  0  0  0  0  0  0  0  0  0
   35.6778  -15.3002   34.7845 H   0  0  0  0  0  0  0  0  0  0  0  0
   35.3020  -16.7915   36.2288 C   0  0  0  0  0  0  0  0  0  0  0  0
   36.2240  -17.1222   37.2405 C   0  0  0  0  0  0  0  0  0  0  0  0
   36.4382  -18.4518   37.5197 C   0  0  0  0  0  0  0  0  0  0  0  0
   35.7878  -19.4377   36.8539 C   0  0  0  0  0  0  0  0  0  0  0  0
   34.8662  -19.0877   35.8508 C   0  0  0  0  0  0  0  0  0  0  0  0
   34.6333  -17.7726   35.5531 C   0  0  0  0  0  0  0  0  0  0  0  0
   36.2032  -20.8352   36.9994 C   0  0  0  0  0  0  0  0  0  0  0  0
   35.4116  -21.6776   37.4571 O   0  0  0  0  0  0  0  0  0  0  0  0
   37.4980  -21.2861   36.6380 N   0  0  0  0  0  0  0  0  0  0  0  0
   37.8995  -22.6355   37.0191 C   0  0  0  0  0  0  0  0  0  0  0  0
   38.6268  -23.3498   35.9213 C   0  0  0  0  0  0  0  0  0  0  0  0
   39.3804  -22.5376   35.0374 N   0  0  0  0  0  0  0  0  0  0  0  0
   40.7565  -22.3776   35.4089 C   0  0  0  0  0  0  0  0  0  0  0  0
   38.7907  -21.3396   34.5686 C   0  0  0  0  0  0  0  0  0  0  0  0
   38.3217  -20.4978   35.7641 C   0  0  0  0  0  0  0  0  0  0  0  0
   33.7040  -17.5023   34.5604 O   0  0  0  0  0  0  0  0  0  0  0  0
   32.6274  -18.2893   34.1898 C   0  0  0  0  0  0  0  0  0  0  0  0
 20 21  1  0  0  0
 21 10  1  0  0  0
 10 11  2  0  0  0
 11 12  1  0  0  0
 12 13  2  0  0  0
 13 14  1  0  0  0
 14 15  2  0  0  0
 15  8  1  0  0  0
  8  1  1  0  0  0
  1  2  2  0  0  0
  2  3  1  0  0  0
  3  4  2  0  0  0
  4  5  1  0  0  0
  4  6  1  0  0  0
  6 22  1  0  0  0
 22 24  1  0  0  0
 24 25  2  0  0  0
 25 26  1  0  0  0
 26 27  2  0  0  0
 27 28  1  0  0  0
 28 29  2  0  0  0
 29 39  1  0  0  0
 39 40  1  0  0  0
 27 30  1  0  0  0
 30 31  2  0  0  0
 30 32  1  0  0  0
 32 33  1  0  0  0
 33 34  1  0  0  0
 34 35  1  0  0  0
 35 36  1  0  0  0
 35 37  1  0  0  0
 37 38  1  0  0  0
  6  7  2  0  0  0
 12 16  1  0  0  0
 16 17  1  0  0  0
 16 18  1  0  0  0
 16 19  1  0  0  0
 15 10  1  0  0  0
  7  1  1  0  0  0
 29 24  1  0  0  0
 38 32  1  0  0  0
  8  9  1  0  0  0
 22 23  1  0  0  0
M  END
> <minimizedAffinity>
-7.63470

> <CNNscore>
0.2783769965

> <CNNaffinity>
6.7644395828

> <CNN_VS>
1.8830643892

> <CNNaffinity_variance>
0.0675865859

$$$$
[H]c1nc(N([H])c2c([H])c([H])c(C(F)(F)F)c([H])c2OC([H])([H])[H])nc(N([H])c2c([H])c([H])c(C(=O)N3C([H])([H])C([H])([H])N(C([H])([H])[H])C([H])([H])C3([H])[H])c([H])c2OC([H])([H])[H])c1Cl


 40 43  0  0  0  0  0  0  0  0999 V2000
   33.0657  -13.0478   36.7521 C   0  0  0  0  0  0  0  0  0  0  0  0
   33.9787  -12.1354   37.2769 N   0  0  0  0  0  0  0  0  0  0  0  0
   35.2654  -12.5072   37.3473 C   0  0  0  0  0  0  0  0  0  0  0  0
   35.7045  -13.7297   36.9314 C   0  0  0  0  0  0  0  0  0  0  0  0
   37.3987  -14.1569   37.0766 Cl  0  0  0  0  0  0  0  0  0  0  0  0
   34.8106  -14.6249   36.4203 C   0  0  0  0  0  0  0  0  0  0  0  0
   33.5335  -14.2183   36.3641 N   0  0  0  0  0  0  0  0  0  0  0  0
   31.7198  -12.5640   36.6127 N   0  0  0  0  0  0  0  0  0  0  0  0
   31.2943  -12.4994   35.6602 H   0  0  0  0  0  0  0  0  0  0  0  0
   30.4384  -10.9833   37.8984 C   0  0  0  0  0  0  0  0  0  0  0  0
   29.6090  -10.6913   38.9863 C   0  0  0  0  0  0  0  0  0  0  0  0
   29.4012  -11.6603   39.9541 C   0  0  0  0  0  0  0  0  0  0  0  0
   30.0049  -12.9061   39.8474 C   0  0  0  0  0  0  0  0  0  0  0  0
   30.8190  -13.1684   38.7561 C   0  0  0  0  0  0  0  0  0  0  0  0
   31.0183  -12.1765   37.7868 C   0  0  0  0  0  0  0  0  0  0  0  0
   28.5091  -11.4133   41.1107 C   0  0  0  0  0  0  0  0  0  0  0  0
   28.9046  -12.2599   42.1545 F   0  0  0  0  0  0  0  0  0  0  0  0
   28.5038  -10.1130   41.5429 F   0  0  0  0  0  0  0  0  0  0  0  0
   27.2465  -11.8194   40.7315 F   0  0  0  0  0  0  0  0  0  0  0  0
   31.5429   -8.9572   37.2175 C   0  0  0  0  0  0  0  0  0  0  0  0
   30.6391   -9.9845   36.9443 O   0  0  0  0  0  0  0  0  0  0  0  0
   35.2642  -15.8454   35.8849 N   0  0  0  0  0  0  0  0  0  0  0  0
   35.7021  -15.7792   34.8944 H   0  0  0  0  0  0  0  0  0  0  0  0
   35.1886  -17.1284   36.4330 C   0  0  0  0  0  0  0  0  0  0  0  0
   36.1686  -17.5252   37.3631 C   0  0  0  0  0  0  0  0  0  0  0  0
   36.2354  -18.8532   37.7148 C   0  0  0  0  0  0  0  0  0  0  0  0
   35.3882  -19.7756   37.1956 C   0  0  0  0  0  0  0  0  0  0  0  0
   34.4122  -19.3593   36.2725 C   0  0  0  0  0  0  0  0  0  0  0  0
   34.3229  -18.0441   35.9054 C   0  0  0  0  0  0  0  0  0  0  0  0
   35.6288  -21.2066   37.3985 C   0  0  0  0  0  0  0  0  0  0  0  0
   36.6359  -21.7463   36.9087 O   0  0  0  0  0  0  0  0  0  0  0  0
   34.7452  -22.0291   38.1424 N   0  0  0  0  0  0  0  0  0  0  0  0
   34.9411  -23.4740   38.1092 C   0  0  0  0  0  0  0  0  0  0  0  0
   34.7859  -24.1058   39.4587 C   0  0  0  0  0  0  0  0  0  0  0  0
   33.8895  -23.4656   40.3506 N   0  0  0  0  0  0  0  0  0  0  0  0
   32.5500  -23.9772   40.3118 C   0  0  0  0  0  0  0  0  0  0  0  0
   33.9406  -22.0546   40.4465 C   0  0  0  0  0  0  0  0  0  0  0  0
   33.7963  -21.4407   39.0464 C   0  0  0  0  0  0  0  0  0  0  0  0
   33.3299  -17.7050   34.9994 O   0  0  0  0  0  0  0  0  0  0  0  0
   32.6294  -18.5636   34.1701 C   0  0  0  0  0  0  0  0  0  0  0  0
 20 21  1  0  0  0
 21 10  1  0  0  0
 10 11  2  0  0  0
 11 12  1  0  0  0
 12 13  2  0  0  0
 13 14  1  0  0  0
 14 15  2  0  0  0
 15  8  1  0  0  0
  8  1  1  0  0  0
  1  2  2  0  0  0
  2  3  1  0  0  0
  3  4  2  0  0  0
  4  5  1  0  0  0
  4  6  1  0  0  0
  6 22  1  0  0  0
 22 24  1  0  0  0
 24 25  2  0  0  0
 25 26  1  0  0  0
 26 27  2  0  0  0
 27 28  1  0  0  0
 28 29  2  0  0  0
 29 39  1  0  0  0
 39 40  1  0  0  0
 27 30  1  0  0  0
 30 31  2  0  0  0
 30 32  1  0  0  0
 32 33  1  0  0  0
 33 34  1  0  0  0
 34 35  1  0  0  0
 35 36  1  0  0  0
 35 37  1  0  0  0
 37 38  1  0  0  0
  6  7  2  0  0  0
 12 16  1  0  0  0
 16 17  1  0  0  0
 16 18  1  0  0  0
 16 19  1  0  0  0
 15 10  1  0  0  0
  7  1  1  0  0  0
 29 24  1  0  0  0
 38 32  1  0  0  0
  8  9  1  0  0  0
 22 23  1  0  0  0
M  END
> <minimizedAffinity>
-7.32438

> <CNNscore>
0.2740607858

> <CNNaffinity>
6.6613516808

> <CNN_VS>
1.8256152868

> <CNNaffinity_variance>
0.0915157646

$$$$
[H]c1nc(N([H])c2c([H])c([H])c(C(F)(F)F)c([H])c2OC([H])([H])[H])nc(N([H])c2c([H])c([H])c(C(=O)N3C([H])([H])C([H])([H])N(C([H])([H])[H])C([H])([H])C3([H])[H])c([H])c2OC([H])([H])[H])c1Cl


 40 43  0  0  0  0  0  0  0  0999 V2000
   33.4683  -12.5181   37.7257 C   0  0  0  0  0  0  0  0  0  0  0  0
   34.6116  -11.8889   37.2371 N   0  0  0  0  0  0  0  0  0  0  0  0
   35.4171  -12.5937   36.4290 C   0  0  0  0  0  0  0  0  0  0  0  0
   35.1613  -13.8859   36.0755 C   0  0  0  0  0  0  0  0  0  0  0  0
   36.2727  -14.7542   35.0340 Cl  0  0  0  0  0  0  0  0  0  0  0  0
   34.0437  -14.5037   36.5561 C   0  0  0  0  0  0  0  0  0  0  0  0
   33.2613  -13.7682   37.3600 N   0  0  0  0  0  0  0  0  0  0  0  0
   32.5941  -11.6891   38.5090 N   0  0  0  0  0  0  0  0  0  0  0  0
   32.9323  -10.7575   38.8409 H   0  0  0  0  0  0  0  0  0  0  0  0
   30.2306  -11.8551   38.0851 C   0  0  0  0  0  0  0  0  0  0  0  0
   29.0000  -12.4855   38.2973 C   0  0  0  0  0  0  0  0  0  0  0  0
   28.9000  -13.4526   39.2840 C   0  0  0  0  0  0  0  0  0  0  0  0
   30.0047  -13.7949   40.0523 C   0  0  0  0  0  0  0  0  0  0  0  0
   31.2125  -13.1558   39.8169 C   0  0  0  0  0  0  0  0  0  0  0  0
   31.2956  -12.1800   38.8150 C   0  0  0  0  0  0  0  0  0  0  0  0
   27.6284  -14.1716   39.5301 C   0  0  0  0  0  0  0  0  0  0  0  0
   27.3027  -14.0295   40.8852 F   0  0  0  0  0  0  0  0  0  0  0  0
   26.5850  -13.7409   38.7533 F   0  0  0  0  0  0  0  0  0  0  0  0
   27.8844  -15.5116   39.3253 F   0  0  0  0  0  0  0  0  0  0  0  0
   30.7019   -9.5862   37.4381 C   0  0  0  0  0  0  0  0  0  0  0  0
   30.2997  -10.8766   37.0921 O   0  0  0  0  0  0  0  0  0  0  0  0
   33.7082  -15.7971   36.1124 N   0  0  0  0  0  0  0  0  0  0  0  0
   32.7424  -15.8805   35.6253 H   0  0  0  0  0  0  0  0  0  0  0  0
   34.4253  -16.9881   36.2515 C   0  0  0  0  0  0  0  0  0  0  0  0
   35.4543  -17.0499   37.2108 C   0  0  0  0  0  0  0  0  0  0  0  0
   36.3105  -18.1259   37.1817 C   0  0  0  0  0  0  0  0  0  0  0  0
   36.1855  -19.1167   36.2646 C   0  0  0  0  0  0  0  0  0  0  0  0
   35.1480  -19.0405   35.3181 C   0  0  0  0  0  0  0  0  0  0  0  0
   34.2815  -17.9815   35.3247 C   0  0  0  0  0  0  0  0  0  0  0  0
   37.2412  -20.1196   36.1021 C   0  0  0  0  0  0  0  0  0  0  0  0
   37.1127  -21.2490   36.6057 O   0  0  0  0  0  0  0  0  0  0  0  0
   38.4351  -19.8586   35.3830 N   0  0  0  0  0  0  0  0  0  0  0  0
   39.5216  -20.8288   35.4570 C   0  0  0  0  0  0  0  0  0  0  0  0
   40.1645  -21.0736   34.1263 C   0  0  0  0  0  0  0  0  0  0  0  0
   40.1576  -19.9858   33.2177 N   0  0  0  0  0  0  0  0  0  0  0  0
   41.3301  -19.1614   33.2728 C   0  0  0  0  0  0  0  0  0  0  0  0
   38.9625  -19.2401   33.0817 C   0  0  0  0  0  0  0  0  0  0  0  0
   38.5007  -18.7563   34.4640 C   0  0  0  0  0  0  0  0  0  0  0  0
   33.2770  -17.9785   34.3692 O   0  0  0  0  0  0  0  0  0  0  0  0
   32.2029  -18.8475   34.2859 C   0  0  0  0  0  0  0  0  0  0  0  0
 20 21  1  0  0  0
 21 10  1  0  0  0
 10 11  2  0  0  0
 11 12  1  0  0  0
 12 13  2  0  0  0
 13 14  1  0  0  0
 14 15  2  0  0  0
 15  8  1  0  0  0
  8  1  1  0  0  0
  1  2  2  0  0  0
  2  3  1  0  0  0
  3  4  2  0  0  0
  4  5  1  0  0  0
  4  6  1  0  0  0
  6 22  1  0  0  0
 22 24  1  0  0  0
 24 25  2  0  0  0
 25 26  1  0  0  0
 26 27  2  0  0  0
 27 28  1  0  0  0
 28 29  2  0  0  0
 29 39  1  0  0  0
 39 40  1  0  0  0
 27 30  1  0  0  0
 30 31  2  0  0  0
 30 32  1  0  0  0
 32 33  1  0  0  0
 33 34  1  0  0  0
 34 35  1  0  0  0
 35 36  1  0  0  0
 35 37  1  0  0  0
 37 38  1  0  0  0
  6  7  2  0  0  0
 12 16  1  0  0  0
 16 17  1  0  0  0
 16 18  1  0  0  0
 16 19  1  0  0  0
 15 10  1  0  0  0
  7  1  1  0  0  0
 29 24  1  0  0  0
 38 32  1  0  0  0
  8  9  1  0  0  0
 22 23  1  0  0  0
M  END
> <minimizedAffinity>
-7.75647

> <CNNscore>
0.2443502098

> <CNNaffinity>
6.6043953896

> <CNN_VS>
1.6137853861

> <CNNaffinity_variance>
0.1667783856

$$$$
[H]c1nc(N([H])c2c([H])c([H])c(C(F)(F)F)c([H])c2OC([H])([H])[H])nc(N([H])c2c([H])c([H])c(C(=O)N3C([H])([H])C([H])([H])N(C([H])([H])[H])C([H])([H])C3([H])[H])c([H])c2OC([H])([H])[H])c1Cl


 40 43  0  0  0  0  0  0  0  0999 V2000
   32.1160  -12.9561   38.3992 C   0  0  0  0  0  0  0  0  0  0  0  0
   32.4324  -11.5996   38.3605 N   0  0  0  0  0  0  0  0  0  0  0  0
   33.4784  -11.2219   37.6109 C   0  0  0  0  0  0  0  0  0  0  0  0
   34.2332  -12.1060   36.8975 C   0  0  0  0  0  0  0  0  0  0  0  0
   35.6025  -11.5431   35.9583 Cl  0  0  0  0  0  0  0  0  0  0  0  0
   33.9259  -13.4348   36.9373 C   0  0  0  0  0  0  0  0  0  0  0  0
   32.8733  -13.7755   37.6959 N   0  0  0  0  0  0  0  0  0  0  0  0
   30.9319  -13.2931   39.1403 N   0  0  0  0  0  0  0  0  0  0  0  0
   30.8092  -14.2688   39.4945 H   0  0  0  0  0  0  0  0  0  0  0  0
   29.4773  -12.0090   40.5646 C   0  0  0  0  0  0  0  0  0  0  0  0
   28.6565  -10.8960   40.7752 C   0  0  0  0  0  0  0  0  0  0  0  0
   28.3441  -10.0769   39.7027 C   0  0  0  0  0  0  0  0  0  0  0  0
   28.8391  -10.3531   38.4352 C   0  0  0  0  0  0  0  0  0  0  0  0
   29.6534  -11.4611   38.2572 C   0  0  0  0  0  0  0  0  0  0  0  0
   29.9589  -12.2789   39.3531 C   0  0  0  0  0  0  0  0  0  0  0  0
   27.5036   -8.8695   39.8763 C   0  0  0  0  0  0  0  0  0  0  0  0
   28.1726   -7.7853   39.2936 F   0  0  0  0  0  0  0  0  0  0  0  0
   26.2473   -8.9831   39.3409 F   0  0  0  0  0  0  0  0  0  0  0  0
   27.4487   -8.6159   41.2312 F   0  0  0  0  0  0  0  0  0  0  0  0
   28.7743  -13.0548   42.6141 C   0  0  0  0  0  0  0  0  0  0  0  0
   29.7664  -12.8232   41.6608 O   0  0  0  0  0  0  0  0  0  0  0  0
   34.6246  -14.3439   36.1204 N   0  0  0  0  0  0  0  0  0  0  0  0
   34.6763  -14.0739   35.0708 H   0  0  0  0  0  0  0  0  0  0  0  0
   35.2193  -15.5599   36.4666 C   0  0  0  0  0  0  0  0  0  0  0  0
   36.4166  -15.5404   37.2076 C   0  0  0  0  0  0  0  0  0  0  0  0
   37.1230  -16.7132   37.3381 C   0  0  0  0  0  0  0  0  0  0  0  0
   36.6965  -17.8727   36.7797 C   0  0  0  0  0  0  0  0  0  0  0  0
   35.4952  -17.8739   36.0482 C   0  0  0  0  0  0  0  0  0  0  0  0
   34.7721  -16.7213   35.9032 C   0  0  0  0  0  0  0  0  0  0  0  0
   37.5760  -19.0435   36.7287 C   0  0  0  0  0  0  0  0  0  0  0  0
   37.4565  -19.9516   37.5694 O   0  0  0  0  0  0  0  0  0  0  0  0
   38.5854  -19.1950   35.7445 N   0  0  0  0  0  0  0  0  0  0  0  0
   39.5541  -20.2745   35.8977 C   0  0  0  0  0  0  0  0  0  0  0  0
   39.8348  -20.9816   34.6071 C   0  0  0  0  0  0  0  0  0  0  0  0
   39.7231  -20.2021   33.4287 N   0  0  0  0  0  0  0  0  0  0  0  0
   40.9527  -19.6029   32.9969 C   0  0  0  0  0  0  0  0  0  0  0  0
   38.6120  -19.3340   33.3080 C   0  0  0  0  0  0  0  0  0  0  0  0
   38.5428  -18.4169   34.5376 C   0  0  0  0  0  0  0  0  0  0  0  0
   33.5929  -16.7998   35.1783 O   0  0  0  0  0  0  0  0  0  0  0  0
   33.1825  -17.8414   34.3644 C   0  0  0  0  0  0  0  0  0  0  0  0
 20 21  1  0  0  0
 21 10  1  0  0  0
 10 11  2  0  0  0
 11 12  1  0  0  0
 12 13  2  0  0  0
 13 14  1  0  0  0
 14 15  2  0  0  0
 15  8  1  0  0  0
  8  1  1  0  0  0
  1  2  2  0  0  0
  2  3  1  0  0  0
  3  4  2  0  0  0
  4  5  1  0  0  0
  4  6  1  0  0  0
  6 22  1  0  0  0
 22 24  1  0  0  0
 24 25  2  0  0  0
 25 26  1  0  0  0
 26 27  2  0  0  0
 27 28  1  0  0  0
 28 29  2  0  0  0
 29 39  1  0  0  0
 39 40  1  0  0  0
 27 30  1  0  0  0
 30 31  2  0  0  0
 30 32  1  0  0  0
 32 33  1  0  0  0
 33 34  1  0  0  0
 34 35  1  0  0  0
 35 36  1  0  0  0
 35 37  1  0  0  0
 37 38  1  0  0  0
  6  7  2  0  0  0
 12 16  1  0  0  0
 16 17  1  0  0  0
 16 18  1  0  0  0
 16 19  1  0  0  0
 15 10  1  0  0  0
  7  1  1  0  0  0
 29 24  1  0  0  0
 38 32  1  0  0  0
  8  9  1  0  0  0
 22 23  1  0  0  0
M  END
> <minimizedAffinity>
-9.11318

> <CNNscore>
0.2168862969

> <CNNaffinity>
6.7056322098

> <CNN_VS>
1.4543597698

> <CNNaffinity_variance>
0.2226347923

$$$$
[H]c1nc(N([H])c2c([H])c([H])c(C(F)(F)F)c([H])c2OC([H])([H])[H])nc(N([H])c2c([H])c([H])c(C(=O)N3C([H])([H])C([H])([H])N(C([H])([H])[H])C([H])([H])C3([H])[H])c([H])c2OC([H])([H])[H])c1Cl


 40 43  0  0  0  0  0  0  0  0999 V2000
   30.7833  -10.5175   37.7942 C   0  0  0  0  0  0  0  0  0  0  0  0
   30.8691   -9.1667   37.4630 N   0  0  0  0  0  0  0  0  0  0  0  0
   32.0743   -8.6776   37.1359 C   0  0  0  0  0  0  0  0  0  0  0  0
   33.2023   -9.4441   37.1183 C   0  0  0  0  0  0  0  0  0  0  0  0
   34.7495   -8.7309   36.7045 Cl  0  0  0  0  0  0  0  0  0  0  0  0
   33.1196  -10.7662   37.4455 C   0  0  0  0  0  0  0  0  0  0  0  0
   31.8988  -11.2205   37.7659 N   0  0  0  0  0  0  0  0  0  0  0  0
   29.4563  -11.0090   38.0441 N   0  0  0  0  0  0  0  0  0  0  0  0
   28.9883  -11.6088   37.3274 H   0  0  0  0  0  0  0  0  0  0  0  0
   28.8843  -11.4169   40.3462 C   0  0  0  0  0  0  0  0  0  0  0  0
   28.4043  -10.9591   41.5779 C   0  0  0  0  0  0  0  0  0  0  0  0
   27.8553   -9.6899   41.6572 C   0  0  0  0  0  0  0  0  0  0  0  0
   27.7828   -8.8800   40.5317 C   0  0  0  0  0  0  0  0  0  0  0  0
   28.2700   -9.3590   39.3251 C   0  0  0  0  0  0  0  0  0  0  0  0
   28.8218  -10.6454   39.2631 C   0  0  0  0  0  0  0  0  0  0  0  0
   27.3595   -9.1453   42.9425 C   0  0  0  0  0  0  0  0  0  0  0  0
   28.3274   -9.3951   43.9240 F   0  0  0  0  0  0  0  0  0  0  0  0
   27.0690   -7.8066   42.9057 F   0  0  0  0  0  0  0  0  0  0  0  0
   26.2494   -9.8885   43.2862 F   0  0  0  0  0  0  0  0  0  0  0  0
   30.6023  -12.9752   40.9857 C   0  0  0  0  0  0  0  0  0  0  0  0
   29.4219  -12.7040   40.2931 O   0  0  0  0  0  0  0  0  0  0  0  0
   34.2522  -11.5937   37.3244 N   0  0  0  0  0  0  0  0  0  0  0  0
   35.1663  -11.1871   37.7441 H   0  0  0  0  0  0  0  0  0  0  0  0
   34.3685  -12.8398   36.7032 C   0  0  0  0  0  0  0  0  0  0  0  0
   33.2232  -13.4136   36.1187 C   0  0  0  0  0  0  0  0  0  0  0  0
   33.2804  -14.7306   35.7263 C   0  0  0  0  0  0  0  0  0  0  0  0
   34.4008  -15.4776   35.8845 C   0  0  0  0  0  0  0  0  0  0  0  0
   35.5368  -14.8853   36.4649 C   0  0  0  0  0  0  0  0  0  0  0  0
   35.5077  -13.5766   36.8637 C   0  0  0  0  0  0  0  0  0  0  0  0
   34.3643  -16.9283   35.6825 C   0  0  0  0  0  0  0  0  0  0  0  0
   33.2777  -17.5323   35.6864 O   0  0  0  0  0  0  0  0  0  0  0  0
   35.5376  -17.6986   35.4809 N   0  0  0  0  0  0  0  0  0  0  0  0
   35.4320  -19.1530   35.5096 C   0  0  0  0  0  0  0  0  0  0  0  0
   36.2308  -19.8082   34.4247 C   0  0  0  0  0  0  0  0  0  0  0  0
   37.3999  -19.1242   34.0075 N   0  0  0  0  0  0  0  0  0  0  0  0
   38.5959  -19.5263   34.6897 C   0  0  0  0  0  0  0  0  0  0  0  0
   37.3181  -17.7250   33.8119 C   0  0  0  0  0  0  0  0  0  0  0  0
   36.7617  -17.0623   35.0804 C   0  0  0  0  0  0  0  0  0  0  0  0
   36.6674  -13.0570   37.4177 O   0  0  0  0  0  0  0  0  0  0  0  0
   37.8476  -13.7350   37.6695 C   0  0  0  0  0  0  0  0  0  0  0  0
 20 21  1  0  0  0
 21 10  1  0  0  0
 10 11  2  0  0  0
 11 12  1  0  0  0
 12 13  2  0  0  0
 13 14  1  0  0  0
 14 15  2  0  0  0
 15  8  1  0  0  0
  8  1  1  0  0  0
  1  2  2  0  0  0
  2  3  1  0  0  0
  3  4  2  0  0  0
  4  5  1  0  0  0
  4  6  1  0  0  0
  6 22  1  0  0  0
 22 24  1  0  0  0
 24 25  2  0  0  0
 25 26  1  0  0  0
 26 27  2  0  0  0
 27 28  1  0  0  0
 28 29  2  0  0  0
 29 39  1  0  0  0
 39 40  1  0  0  0
 27 30  1  0  0  0
 30 31  2  0  0  0
 30 32  1  0  0  0
 32 33  1  0  0  0
 33 34  1  0  0  0
 34 35  1  0  0  0
 35 36  1  0  0  0
 35 37  1  0  0  0
 37 38  1  0  0  0
  6  7  2  0  0  0
 12 16  1  0  0  0
 16 17  1  0  0  0
 16 18  1  0  0  0
 16 19  1  0  0  0
 15 10  1  0  0  0
  7  1  1  0  0  0
 29 24  1  0  0  0
 38 32  1  0  0  0
  8  9  1  0  0  0
 22 23  1  0  0  0
M  END
> <minimizedAffinity>
-8.55959

> <CNNscore>
0.2091831565

> <CNNaffinity>
6.9020490646

> <CNN_VS>
1.4437924623

> <CNNaffinity_variance>
0.1302955449

$$$$
[H]c1nc(N([H])c2c([H])c([H])c(N3C([H])([H])C([H])([H])N(C([H])(C([H])([H])[H])C([H])([H])[H])C([H])([H])C3([H])[H])c([H])c2OC([H])([H])[H])nc(N([H])c2c([H])c([H])c([H])c([H])c2S(=O)(=O)C([H])(C([H])([H])[H])C([H])([H])[H])c1Cl


 40 43  0  0  0  0  0  0  0  0999 V2000
   32.5563  -18.7768   35.1862 C   0  0  0  0  0  0  0  0  0  0  0  0
   31.3760  -18.6070   34.5872 N   0  0  0  0  0  0  0  0  0  0  0  0
   30.3336  -19.4293   34.7653 C   0  0  0  0  0  0  0  0  0  0  0  0
   30.5357  -20.4890   35.6191 C   0  0  0  0  0  0  0  0  0  0  0  0
   29.2437  -21.6464   35.9303 Cl  0  0  0  0  0  0  0  0  0  0  0  0
   31.7464  -20.7001   36.2621 C   0  0  0  0  0  0  0  0  0  0  0  0
   32.7337  -19.8437   36.0362 N   0  0  0  0  0  0  0  0  0  0  0  0
   33.6215  -17.8850   34.9501 N   0  0  0  0  0  0  0  0  0  0  0  0
   33.3288  -16.8412   34.7812 H   0  0  0  0  0  0  0  0  0  0  0  0
   35.8051  -17.5215   35.7980 C   0  0  0  0  0  0  0  0  0  0  0  0
   37.1492  -17.7449   35.7803 C   0  0  0  0  0  0  0  0  0  0  0  0
   37.7688  -18.6360   34.9066 C   0  0  0  0  0  0  0  0  0  0  0  0
   36.9322  -19.2903   34.0471 C   0  0  0  0  0  0  0  0  0  0  0  0
   35.5360  -19.0796   34.0418 C   0  0  0  0  0  0  0  0  0  0  0  0
   34.9717  -18.2088   34.9034 C   0  0  0  0  0  0  0  0  0  0  0  0
   39.1599  -18.8145   34.9677 N   0  0  0  0  0  0  0  0  0  0  0  0
   39.9186  -18.8680   33.7284 C   0  0  0  0  0  0  0  0  0  0  0  0
   41.3583  -18.4725   33.9910 C   0  0  0  0  0  0  0  0  0  0  0  0
   41.9293  -19.0665   35.1194 N   0  0  0  0  0  0  0  0  0  0  0  0
   41.1498  -19.6453   36.1265 C   0  0  0  0  0  0  0  0  0  0  0  0
   39.8069  -18.9512   36.2556 C   0  0  0  0  0  0  0  0  0  0  0  0
   43.0983  -18.4241   35.6299 C   0  0  0  0  0  0  0  0  0  0  0  0
   42.9970  -16.9316   35.6042 C   0  0  0  0  0  0  0  0  0  0  0  0
   43.4721  -18.8667   37.0302 C   0  0  0  0  0  0  0  0  0  0  0  0
   36.0245  -15.5019   37.0950 C   0  0  0  0  0  0  0  0  0  0  0  0
   35.2396  -16.6068   36.7074 O   0  0  0  0  0  0  0  0  0  0  0  0
   31.8967  -21.7952   37.1397 N   0  0  0  0  0  0  0  0  0  0  0  0
   31.4609  -21.6343   38.1020 H   0  0  0  0  0  0  0  0  0  0  0  0
   32.4983  -23.0369   36.9596 C   0  0  0  0  0  0  0  0  0  0  0  0
   32.0156  -24.0547   36.1570 C   0  0  0  0  0  0  0  0  0  0  0  0
   32.6400  -25.2940   36.0128 C   0  0  0  0  0  0  0  0  0  0  0  0
   33.7951  -25.4996   36.7119 C   0  0  0  0  0  0  0  0  0  0  0  0
   34.2895  -24.4969   37.5160 C   0  0  0  0  0  0  0  0  0  0  0  0
   33.6961  -23.2667   37.6769 C   0  0  0  0  0  0  0  0  0  0  0  0
   34.4126  -22.1027   38.7281 S   0  0  0  0  0  0  0  0  0  0  0  0
   35.3645  -22.6673   39.7271 O   0  0  0  0  0  0  0  0  0  0  0  0
   33.3553  -21.3301   39.5083 O   0  0  0  0  0  0  0  0  0  0  0  0
   35.3348  -20.9238   37.7577 C   0  0  0  0  0  0  0  0  0  0  0  0
   35.5774  -19.6798   38.5640 C   0  0  0  0  0  0  0  0  0  0  0  0
   36.7031  -21.4999   37.4106 C   0  0  0  0  0  0  0  0  0  0  0  0
 25 26  1  0  0  0
 26 10  1  0  0  0
 10 11  2  0  0  0
 11 12  1  0  0  0
 12 13  2  0  0  0
 13 14  1  0  0  0
 14 15  2  0  0  0
 15  8  1  0  0  0
  8  1  1  0  0  0
  1  2  2  0  0  0
  2  3  1  0  0  0
  3  4  2  0  0  0
  4  5  1  0  0  0
  4  6  1  0  0  0
  6 27  1  0  0  0
 27 29  1  0  0  0
 29 30  2  0  0  0
 30 31  1  0  0  0
 31 32  2  0  0  0
 32 33  1  0  0  0
 33 34  2  0  0  0
 34 35  1  0  0  0
 35 36  2  0  0  0
 35 37  2  0  0  0
 35 38  1  0  0  0
 38 39  1  0  0  0
 38 40  1  0  0  0
  6  7  2  0  0  0
 12 16  1  0  0  0
 16 17  1  0  0  0
 17 18  1  0  0  0
 18 19  1  0  0  0
 19 20  1  0  0  0
 20 21  1  0  0  0
 19 22  1  0  0  0
 22 23  1  0  0  0
 22 24  1  0  0  0
 15 10  1  0  0  0
  7  1  1  0  0  0
 21 16  1  0  0  0
 34 29  1  0  0  0
  8  9  1  0  0  0
 27 28  1  0  0  0
M  END
> <minimizedAffinity>
-6.30284

> <CNNscore>
0.4537089169

> <CNNaffinity>
6.5900216103

> <CNN_VS>
2.9899516106

> <CNNaffinity_variance>
0.5737319589

$$$$
[H]c1nc(N([H])c2c([H])c([H])c(N3C([H])([H])C([H])([H])N(C([H])(C([H])([H])[H])C([H])([H])[H])C([H])([H])C3([H])[H])c([H])c2OC([H])([H])[H])nc(N([H])c2c([H])c([H])c([H])c([H])c2S(=O)(=O)C([H])(C([H])([H])[H])C([H])([H])[H])c1Cl


 40 43  0  0  0  0  0  0  0  0999 V2000
   32.4531  -18.7768   35.4878 C   0  0  0  0  0  0  0  0  0  0  0  0
   31.3668  -18.5644   34.7425 N   0  0  0  0  0  0  0  0  0  0  0  0
   30.3028  -19.3782   34.7411 C   0  0  0  0  0  0  0  0  0  0  0  0
   30.3776  -20.4762   35.5667 C   0  0  0  0  0  0  0  0  0  0  0  0
   29.0452  -21.6267   35.6483 Cl  0  0  0  0  0  0  0  0  0  0  0  0
   31.4876  -20.7323   36.3579 C   0  0  0  0  0  0  0  0  0  0  0  0
   32.5039  -19.8815   36.3060 N   0  0  0  0  0  0  0  0  0  0  0  0
   33.5483  -17.8915   35.4381 N   0  0  0  0  0  0  0  0  0  0  0  0
   33.3012  -16.8331   35.5881 H   0  0  0  0  0  0  0  0  0  0  0  0
   35.8337  -17.5297   35.9528 C   0  0  0  0  0  0  0  0  0  0  0  0
   37.1595  -17.7717   35.7512 C   0  0  0  0  0  0  0  0  0  0  0  0
   37.6402  -18.6990   34.8292 C   0  0  0  0  0  0  0  0  0  0  0  0
   36.6836  -19.3698   34.1208 C   0  0  0  0  0  0  0  0  0  0  0  0
   35.3029  -19.1407   34.3075 C   0  0  0  0  0  0  0  0  0  0  0  0
   34.8751  -18.2348   35.2103 C   0  0  0  0  0  0  0  0  0  0  0  0
   39.0241  -18.8940   34.6973 N   0  0  0  0  0  0  0  0  0  0  0  0
   39.6215  -18.8319   33.3731 C   0  0  0  0  0  0  0  0  0  0  0  0
   41.0904  -18.4759   33.4893 C   0  0  0  0  0  0  0  0  0  0  0  0
   41.7851  -19.1824   34.4745 N   0  0  0  0  0  0  0  0  0  0  0  0
   41.1253  -19.8508   35.5112 C   0  0  0  0  0  0  0  0  0  0  0  0
   39.8233  -19.1617   35.8744 C   0  0  0  0  0  0  0  0  0  0  0  0
   43.0215  -18.6028   34.8933 C   0  0  0  0  0  0  0  0  0  0  0  0
   42.8958  -17.1503   35.2292 C   0  0  0  0  0  0  0  0  0  0  0  0
   43.6650  -19.3228   36.0612 C   0  0  0  0  0  0  0  0  0  0  0  0
   36.4068  -15.9224   37.6549 C   0  0  0  0  0  0  0  0  0  0  0  0
   35.4120  -16.5783   36.9017 O   0  0  0  0  0  0  0  0  0  0  0  0
   31.5076  -21.8658   37.1984 N   0  0  0  0  0  0  0  0  0  0  0  0
   31.5184  -21.6254   38.2395 H   0  0  0  0  0  0  0  0  0  0  0  0
   31.5029  -23.2254   36.9022 C   0  0  0  0  0  0  0  0  0  0  0  0
   32.0989  -23.8094   35.7991 C   0  0  0  0  0  0  0  0  0  0  0  0
   32.0602  -25.1773   35.5273 C   0  0  0  0  0  0  0  0  0  0  0  0
   31.3904  -25.9739   36.4116 C   0  0  0  0  0  0  0  0  0  0  0  0
   30.7909  -25.4088   37.5150 C   0  0  0  0  0  0  0  0  0  0  0  0
   30.8130  -24.0652   37.8081 C   0  0  0  0  0  0  0  0  0  0  0  0
   30.0077  -23.4844   39.2178 S   0  0  0  0  0  0  0  0  0  0  0  0
   28.9989  -22.4163   38.9641 O   0  0  0  0  0  0  0  0  0  0  0  0
   30.9966  -22.9293   40.2364 O   0  0  0  0  0  0  0  0  0  0  0  0
   29.1352  -24.8330   39.9936 C   0  0  0  0  0  0  0  0  0  0  0  0
   29.8374  -25.2317   41.2603 C   0  0  0  0  0  0  0  0  0  0  0  0
   27.7336  -24.3811   40.3882 C   0  0  0  0  0  0  0  0  0  0  0  0
 25 26  1  0  0  0
 26 10  1  0  0  0
 10 11  2  0  0  0
 11 12  1  0  0  0
 12 13  2  0  0  0
 13 14  1  0  0  0
 14 15  2  0  0  0
 15  8  1  0  0  0
  8  1  1  0  0  0
  1  2  2  0  0  0
  2  3  1  0  0  0
  3  4  2  0  0  0
  4  5  1  0  0  0
  4  6  1  0  0  0
  6 27  1  0  0  0
 27 29  1  0  0  0
 29 30  2  0  0  0
 30 31  1  0  0  0
 31 32  2  0  0  0
 32 33  1  0  0  0
 33 34  2  0  0  0
 34 35  1  0  0  0
 35 36  2  0  0  0
 35 37  2  0  0  0
 35 38  1  0  0  0
 38 39  1  0  0  0
 38 40  1  0  0  0
  6  7  2  0  0  0
 12 16  1  0  0  0
 16 17  1  0  0  0
 17 18  1  0  0  0
 18 19  1  0  0  0
 19 20  1  0  0  0
 20 21  1  0  0  0
 19 22  1  0  0  0
 22 23  1  0  0  0
 22 24  1  0  0  0
 15 10  1  0  0  0
  7  1  1  0  0  0
 21 16  1  0  0  0
 34 29  1  0  0  0
  8  9  1  0  0  0
 27 28  1  0  0  0
M  END
> <minimizedAffinity>
-6.01640

> <CNNscore>
0.4464870393

> <CNNaffinity>
6.3824272156

> <CNN_VS>
2.8496711254

> <CNNaffinity_variance>
0.6261538267

$$$$
[H]c1nc(N([H])c2c([H])c([H])c(N3C([H])([H])C([H])([H])N(C([H])(C([H])([H])[H])C([H])([H])[H])C([H])([H])C3([H])[H])c([H])c2OC([H])([H])[H])nc(N([H])c2c([H])c([H])c([H])c([H])c2S(=O)(=O)C([H])(C([H])([H])[H])C([H])([H])[H])c1Cl


 40 43  0  0  0  0  0  0  0  0999 V2000
   32.5503  -18.7894   35.2499 C   0  0  0  0  0  0  0  0  0  0  0  0
   31.3929  -18.6419   34.6023 N   0  0  0  0  0  0  0  0  0  0  0  0
   30.3503  -19.4683   34.7581 C   0  0  0  0  0  0  0  0  0  0  0  0
   30.5266  -20.5077   35.6421 C   0  0  0  0  0  0  0  0  0  0  0  0
   29.2317  -21.6683   35.9285 Cl  0  0  0  0  0  0  0  0  0  0  0  0
   31.7130  -20.6954   36.3356 C   0  0  0  0  0  0  0  0  0  0  0  0
   32.7022  -19.8363   36.1292 N   0  0  0  0  0  0  0  0  0  0  0  0
   33.6176  -17.8946   35.0356 N   0  0  0  0  0  0  0  0  0  0  0  0
   33.3316  -16.8394   34.9431 H   0  0  0  0  0  0  0  0  0  0  0  0
   35.8375  -17.5734   35.8022 C   0  0  0  0  0  0  0  0  0  0  0  0
   37.1777  -17.8069   35.7222 C   0  0  0  0  0  0  0  0  0  0  0  0
   37.7525  -18.6769   34.7981 C   0  0  0  0  0  0  0  0  0  0  0  0
   36.8751  -19.2991   33.9555 C   0  0  0  0  0  0  0  0  0  0  0  0
   35.4820  -19.0772   34.0144 C   0  0  0  0  0  0  0  0  0  0  0  0
   34.9617  -18.2276   34.9234 C   0  0  0  0  0  0  0  0  0  0  0  0
   39.1433  -18.8682   34.7962 N   0  0  0  0  0  0  0  0  0  0  0  0
   39.8505  -18.8852   33.5258 C   0  0  0  0  0  0  0  0  0  0  0  0
   41.3032  -18.5100   33.7425 C   0  0  0  0  0  0  0  0  0  0  0  0
   41.9141  -19.1467   34.8259 N   0  0  0  0  0  0  0  0  0  0  0  0
   41.1708  -19.7535   35.8439 C   0  0  0  0  0  0  0  0  0  0  0  0
   39.8407  -19.0538   36.0512 C   0  0  0  0  0  0  0  0  0  0  0  0
   43.1087  -18.5312   35.3096 C   0  0  0  0  0  0  0  0  0  0  0  0
   42.9997  -17.0414   35.3934 C   0  0  0  0  0  0  0  0  0  0  0  0
   43.5672  -19.0660   36.6513 C   0  0  0  0  0  0  0  0  0  0  0  0
   36.2393  -15.9684   37.5547 C   0  0  0  0  0  0  0  0  0  0  0  0
   35.3185  -16.6813   36.7603 O   0  0  0  0  0  0  0  0  0  0  0  0
   31.8369  -21.7701   37.2421 N   0  0  0  0  0  0  0  0  0  0  0  0
   31.3681  -21.5895   38.1852 H   0  0  0  0  0  0  0  0  0  0  0  0
   32.4484  -23.0131   37.1103 C   0  0  0  0  0  0  0  0  0  0  0  0
   32.2475  -23.9008   36.0688 C   0  0  0  0  0  0  0  0  0  0  0  0
   32.8686  -25.1469   35.9785 C   0  0  0  0  0  0  0  0  0  0  0  0
   33.7223  -25.4968   36.9855 C   0  0  0  0  0  0  0  0  0  0  0  0
   33.9335  -24.6249   38.0302 C   0  0  0  0  0  0  0  0  0  0  0  0
   33.3360  -23.3915   38.1452 C   0  0  0  0  0  0  0  0  0  0  0  0
   33.6764  -22.4010   39.5150 S   0  0  0  0  0  0  0  0  0  0  0  0
   33.6495  -20.9347   39.2463 O   0  0  0  0  0  0  0  0  0  0  0  0
   35.0441  -22.7196   40.1077 O   0  0  0  0  0  0  0  0  0  0  0  0
   32.4564  -22.7081   40.7795 C   0  0  0  0  0  0  0  0  0  0  0  0
   32.0556  -24.1557   40.7592 C   0  0  0  0  0  0  0  0  0  0  0  0
   33.0580  -22.4348   42.1535 C   0  0  0  0  0  0  0  0  0  0  0  0
 25 26  1  0  0  0
 26 10  1  0  0  0
 10 11  2  0  0  0
 11 12  1  0  0  0
 12 13  2  0  0  0
 13 14  1  0  0  0
 14 15  2  0  0  0
 15  8  1  0  0  0
  8  1  1  0  0  0
  1  2  2  0  0  0
  2  3  1  0  0  0
  3  4  2  0  0  0
  4  5  1  0  0  0
  4  6  1  0  0  0
  6 27  1  0  0  0
 27 29  1  0  0  0
 29 30  2  0  0  0
 30 31  1  0  0  0
 31 32  2  0  0  0
 32 33  1  0  0  0
 33 34  2  0  0  0
 34 35  1  0  0  0
 35 36  2  0  0  0
 35 37  2  0  0  0
 35 38  1  0  0  0
 38 39  1  0  0  0
 38 40  1  0  0  0
  6  7  2  0  0  0
 12 16  1  0  0  0
 16 17  1  0  0  0
 17 18  1  0  0  0
 18 19  1  0  0  0
 19 20  1  0  0  0
 20 21  1  0  0  0
 19 22  1  0  0  0
 22 23  1  0  0  0
 22 24  1  0  0  0
 15 10  1  0  0  0
  7  1  1  0  0  0
 21 16  1  0  0  0
 34 29  1  0  0  0
  8  9  1  0  0  0
 27 28  1  0  0  0
M  END
> <minimizedAffinity>
-5.90599

> <CNNscore>
0.3796006143

> <CNNaffinity>
6.3657455444

> <CNN_VS>
2.4164409637

> <CNNaffinity_variance>
0.7011614442

$$$$
[H]c1nc(N([H])c2c([H])c([H])c(N3C([H])([H])C([H])([H])N(C([H])(C([H])([H])[H])C([H])([H])[H])C([H])([H])C3([H])[H])c([H])c2OC([H])([H])[H])nc(N([H])c2c([H])c([H])c([H])c([H])c2S(=O)(=O)C([H])(C([H])([H])[H])C([H])([H])[H])c1Cl


 40 43  0  0  0  0  0  0  0  0999 V2000
   33.6018  -14.2076   36.6975 C   0  0  0  0  0  0  0  0  0  0  0  0
   34.5290  -13.3387   36.2898 N   0  0  0  0  0  0  0  0  0  0  0  0
   34.5481  -12.0520   36.6618 C   0  0  0  0  0  0  0  0  0  0  0  0
   33.5414  -11.6504   37.5092 C   0  0  0  0  0  0  0  0  0  0  0  0
   33.4522   -9.9801   38.0643 Cl  0  0  0  0  0  0  0  0  0  0  0  0
   32.5598  -12.5220   37.9568 C   0  0  0  0  0  0  0  0  0  0  0  0
   32.6056  -13.7821   37.5454 N   0  0  0  0  0  0  0  0  0  0  0  0
   33.6259  -15.5476   36.2623 N   0  0  0  0  0  0  0  0  0  0  0  0
   32.6425  -15.9940   36.0686 H   0  0  0  0  0  0  0  0  0  0  0  0
   34.6725  -17.3104   35.0723 C   0  0  0  0  0  0  0  0  0  0  0  0
   35.7209  -18.1544   34.8592 C   0  0  0  0  0  0  0  0  0  0  0  0
   36.9050  -18.1098   35.5922 C   0  0  0  0  0  0  0  0  0  0  0  0
   36.9578  -17.1475   36.5608 C   0  0  0  0  0  0  0  0  0  0  0  0
   35.8879  -16.2591   36.8048 C   0  0  0  0  0  0  0  0  0  0  0  0
   34.7568  -16.3323   36.0740 C   0  0  0  0  0  0  0  0  0  0  0  0
   37.9402  -19.0101   35.2948 N   0  0  0  0  0  0  0  0  0  0  0  0
   37.9301  -19.6973   34.0135 C   0  0  0  0  0  0  0  0  0  0  0  0
   39.3391  -20.1200   33.6471 C   0  0  0  0  0  0  0  0  0  0  0  0
   40.0589  -20.7126   34.6878 N   0  0  0  0  0  0  0  0  0  0  0  0
   39.6780  -20.5714   36.0264 C   0  0  0  0  0  0  0  0  0  0  0  0
   38.9862  -19.2429   36.2683 C   0  0  0  0  0  0  0  0  0  0  0  0
   41.4769  -20.7401   34.5197 C   0  0  0  0  0  0  0  0  0  0  0  0
   41.9266  -21.8008   33.5652 C   0  0  0  0  0  0  0  0  0  0  0  0
   42.0633  -19.4109   34.0882 C   0  0  0  0  0  0  0  0  0  0  0  0
   32.7249  -18.5757   34.4285 C   0  0  0  0  0  0  0  0  0  0  0  0
   33.5017  -17.4070   34.2957 O   0  0  0  0  0  0  0  0  0  0  0  0
   31.5572  -12.0621   38.8372 N   0  0  0  0  0  0  0  0  0  0  0  0
   31.9262  -11.7996   39.8051 H   0  0  0  0  0  0  0  0  0  0  0  0
   30.1893  -11.8841   38.6540 C   0  0  0  0  0  0  0  0  0  0  0  0
   29.6050  -11.1049   37.6719 C   0  0  0  0  0  0  0  0  0  0  0  0
   28.2271  -10.9384   37.5286 C   0  0  0  0  0  0  0  0  0  0  0  0
   27.4207  -11.5893   38.4182 C   0  0  0  0  0  0  0  0  0  0  0  0
   27.9861  -12.3689   39.4025 C   0  0  0  0  0  0  0  0  0  0  0  0
   29.3392  -12.5513   39.5673 C   0  0  0  0  0  0  0  0  0  0  0  0
   29.9177  -13.5440   40.8531 S   0  0  0  0  0  0  0  0  0  0  0  0
   31.1827  -13.0713   41.4850 O   0  0  0  0  0  0  0  0  0  0  0  0
   30.1608  -14.9749   40.3871 O   0  0  0  0  0  0  0  0  0  0  0  0
   28.6929  -13.5999   42.1487 C   0  0  0  0  0  0  0  0  0  0  0  0
   27.8819  -14.8587   42.0283 C   0  0  0  0  0  0  0  0  0  0  0  0
   29.3820  -13.6460   43.5079 C   0  0  0  0  0  0  0  0  0  0  0  0
 25 26  1  0  0  0
 26 10  1  0  0  0
 10 11  2  0  0  0
 11 12  1  0  0  0
 12 13  2  0  0  0
 13 14  1  0  0  0
 14 15  2  0  0  0
 15  8  1  0  0  0
  8  1  1  0  0  0
  1  2  2  0  0  0
  2  3  1  0  0  0
  3  4  2  0  0  0
  4  5  1  0  0  0
  4  6  1  0  0  0
  6 27  1  0  0  0
 27 29  1  0  0  0
 29 30  2  0  0  0
 30 31  1  0  0  0
 31 32  2  0  0  0
 32 33  1  0  0  0
 33 34  2  0  0  0
 34 35  1  0  0  0
 35 36  2  0  0  0
 35 37  2  0  0  0
 35 38  1  0  0  0
 38 39  1  0  0  0
 38 40  1  0  0  0
  6  7  2  0  0  0
 12 16  1  0  0  0
 16 17  1  0  0  0
 17 18  1  0  0  0
 18 19  1  0  0  0
 19 20  1  0  0  0
 20 21  1  0  0  0
 19 22  1  0  0  0
 22 23  1  0  0  0
 22 24  1  0  0  0
 15 10  1  0  0  0
  7  1  1  0  0  0
 21 16  1  0  0  0
 34 29  1  0  0  0
  8  9  1  0  0  0
 27 28  1  0  0  0
M  END
> <minimizedAffinity>
-8.33721

> <CNNscore>
0.3351719975

> <CNNaffinity>
6.9287710190

> <CNN_VS>
2.3223299980

> <CNNaffinity_variance>
0.0982358977

$$$$
[H]c1nc(N([H])c2c([H])c([H])c(N3C([H])([H])C([H])([H])N(C([H])(C([H])([H])[H])C([H])([H])[H])C([H])([H])C3([H])[H])c([H])c2OC([H])([H])[H])nc(N([H])c2c([H])c([H])c([H])c([H])c2S(=O)(=O)C([H])(C([H])([H])[H])C([H])([H])[H])c1Cl


 40 43  0  0  0  0  0  0  0  0999 V2000
   32.5799  -18.7462   35.5076 C   0  0  0  0  0  0  0  0  0  0  0  0
   31.4292  -18.4139   34.9193 N   0  0  0  0  0  0  0  0  0  0  0  0
   30.3499  -19.2071   34.9097 C   0  0  0  0  0  0  0  0  0  0  0  0
   30.4799  -20.4164   35.5528 C   0  0  0  0  0  0  0  0  0  0  0  0
   29.1334  -21.5522   35.6035 Cl  0  0  0  0  0  0  0  0  0  0  0  0
   31.6578  -20.7990   36.1773 C   0  0  0  0  0  0  0  0  0  0  0  0
   32.6852  -19.9608   36.1449 N   0  0  0  0  0  0  0  0  0  0  0  0
   33.6869  -17.8749   35.4741 N   0  0  0  0  0  0  0  0  0  0  0  0
   33.4532  -16.8155   35.6379 H   0  0  0  0  0  0  0  0  0  0  0  0
   35.9647  -17.6436   36.0882 C   0  0  0  0  0  0  0  0  0  0  0  0
   37.2887  -17.9034   35.8976 C   0  0  0  0  0  0  0  0  0  0  0  0
   37.7712  -18.7387   34.8922 C   0  0  0  0  0  0  0  0  0  0  0  0
   36.8184  -19.2975   34.0880 C   0  0  0  0  0  0  0  0  0  0  0  0
   35.4396  -19.0470   34.2609 C   0  0  0  0  0  0  0  0  0  0  0  0
   35.0099  -18.2325   35.2463 C   0  0  0  0  0  0  0  0  0  0  0  0
   39.1525  -18.9614   34.7776 N   0  0  0  0  0  0  0  0  0  0  0  0
   39.7445  -19.0495   33.4525 C   0  0  0  0  0  0  0  0  0  0  0  0
   41.2175  -18.6984   33.5245 C   0  0  0  0  0  0  0  0  0  0  0  0
   41.9094  -19.3012   34.5781 N   0  0  0  0  0  0  0  0  0  0  0  0
   41.2475  -19.8464   35.6834 C   0  0  0  0  0  0  0  0  0  0  0  0
   39.9542  -19.1083   35.9742 C   0  0  0  0  0  0  0  0  0  0  0  0
   43.1534  -18.6926   34.9276 C   0  0  0  0  0  0  0  0  0  0  0  0
   43.0709  -17.2001   34.9894 C   0  0  0  0  0  0  0  0  0  0  0  0
   43.7367  -19.2063   36.2285 C   0  0  0  0  0  0  0  0  0  0  0  0
   36.4590  -15.8284   37.5948 C   0  0  0  0  0  0  0  0  0  0  0  0
   35.5410  -16.7892   37.1245 O   0  0  0  0  0  0  0  0  0  0  0  0
   31.7339  -22.0451   36.8355 N   0  0  0  0  0  0  0  0  0  0  0  0
   30.8594  -22.2833   37.4016 H   0  0  0  0  0  0  0  0  0  0  0  0
   32.7384  -23.0077   36.8601 C   0  0  0  0  0  0  0  0  0  0  0  0
   34.0960  -22.7507   36.9236 C   0  0  0  0  0  0  0  0  0  0  0  0
   35.0759  -23.7438   36.9313 C   0  0  0  0  0  0  0  0  0  0  0  0
   34.6544  -25.0415   36.8720 C   0  0  0  0  0  0  0  0  0  0  0  0
   33.3063  -25.3151   36.8080 C   0  0  0  0  0  0  0  0  0  0  0  0
   32.3191  -24.3577   36.7991 C   0  0  0  0  0  0  0  0  0  0  0  0
   30.6653  -24.8357   36.7007 S   0  0  0  0  0  0  0  0  0  0  0  0
   29.7424  -24.0752   37.5910 O   0  0  0  0  0  0  0  0  0  0  0  0
   30.4906  -26.3124   37.0360 O   0  0  0  0  0  0  0  0  0  0  0  0
   30.0807  -24.5890   35.0336 C   0  0  0  0  0  0  0  0  0  0  0  0
   31.2200  -24.7437   34.0667 C   0  0  0  0  0  0  0  0  0  0  0  0
   29.0545  -25.6607   34.6832 C   0  0  0  0  0  0  0  0  0  0  0  0
 25 26  1  0  0  0
 26 10  1  0  0  0
 10 11  2  0  0  0
 11 12  1  0  0  0
 12 13  2  0  0  0
 13 14  1  0  0  0
 14 15  2  0  0  0
 15  8  1  0  0  0
  8  1  1  0  0  0
  1  2  2  0  0  0
  2  3  1  0  0  0
  3  4  2  0  0  0
  4  5  1  0  0  0
  4  6  1  0  0  0
  6 27  1  0  0  0
 27 29  1  0  0  0
 29 30  2  0  0  0
 30 31  1  0  0  0
 31 32  2  0  0  0
 32 33  1  0  0  0
 33 34  2  0  0  0
 34 35  1  0  0  0
 35 36  2  0  0  0
 35 37  2  0  0  0
 35 38  1  0  0  0
 38 39  1  0  0  0
 38 40  1  0  0  0
  6  7  2  0  0  0
 12 16  1  0  0  0
 16 17  1  0  0  0
 17 18  1  0  0  0
 18 19  1  0  0  0
 19 20  1  0  0  0
 20 21  1  0  0  0
 19 22  1  0  0  0
 22 23  1  0  0  0
 22 24  1  0  0  0
 15 10  1  0  0  0
  7  1  1  0  0  0
 21 16  1  0  0  0
 34 29  1  0  0  0
  8  9  1  0  0  0
 27 28  1  0  0  0
M  END
> <minimizedAffinity>
-6.12427

> <CNNscore>
0.3350290358

> <CNNaffinity>
6.5148200989

> <CNN_VS>
2.1826539040

> <CNNaffinity_variance>
0.4600311220

$$$$
[H]c1nc(N([H])c2c([H])c([H])c(N3C([H])([H])C([H])([H])N(C([H])(C([H])([H])[H])C([H])([H])[H])C([H])([H])C3([H])[H])c([H])c2OC([H])([H])[H])nc(N([H])c2c([H])c([H])c([H])c([H])c2S(=O)(=O)C([H])(C([H])([H])[H])C([H])([H])[H])c1Cl


 40 43  0  0  0  0  0  0  0  0999 V2000
   32.9736  -12.7529   37.9252 C   0  0  0  0  0  0  0  0  0  0  0  0
   32.3142  -12.1628   36.9264 N   0  0  0  0  0  0  0  0  0  0  0  0
   31.0250  -11.8072   37.0024 C   0  0  0  0  0  0  0  0  0  0  0  0
   30.3885  -12.0829   38.1905 C   0  0  0  0  0  0  0  0  0  0  0  0
   28.6895  -11.6706   38.4121 Cl  0  0  0  0  0  0  0  0  0  0  0  0
   31.0380  -12.6936   39.2530 C   0  0  0  0  0  0  0  0  0  0  0  0
   32.3155  -13.0177   39.1039 N   0  0  0  0  0  0  0  0  0  0  0  0
   34.3277  -13.1160   37.7826 N   0  0  0  0  0  0  0  0  0  0  0  0
   35.0507  -12.3836   38.1631 H   0  0  0  0  0  0  0  0  0  0  0  0
   36.1787  -14.5413   37.3811 C   0  0  0  0  0  0  0  0  0  0  0  0
   36.7406  -15.6408   36.8048 C   0  0  0  0  0  0  0  0  0  0  0  0
   36.0262  -16.5529   36.0309 C   0  0  0  0  0  0  0  0  0  0  0  0
   34.6968  -16.2767   35.8787 C   0  0  0  0  0  0  0  0  0  0  0  0
   34.0866  -15.1455   36.4634 C   0  0  0  0  0  0  0  0  0  0  0  0
   34.8108  -14.2845   37.2070 C   0  0  0  0  0  0  0  0  0  0  0  0
   36.6841  -17.6672   35.4866 N   0  0  0  0  0  0  0  0  0  0  0  0
   36.7305  -17.8217   34.0415 C   0  0  0  0  0  0  0  0  0  0  0  0
   37.9191  -18.6797   33.6553 C   0  0  0  0  0  0  0  0  0  0  0  0
   38.0827  -19.8312   34.4296 N   0  0  0  0  0  0  0  0  0  0  0  0
   37.4672  -19.9788   35.6771 C   0  0  0  0  0  0  0  0  0  0  0  0
   37.2912  -18.6405   36.3699 C   0  0  0  0  0  0  0  0  0  0  0  0
   39.3799  -20.4270   34.3828 C   0  0  0  0  0  0  0  0  0  0  0  0
   40.4618  -19.4949   34.8292 C   0  0  0  0  0  0  0  0  0  0  0  0
   39.4853  -21.7157   35.1730 C   0  0  0  0  0  0  0  0  0  0  0  0
   38.2479  -13.3430   37.6837 C   0  0  0  0  0  0  0  0  0  0  0  0
   36.9564  -13.6568   38.1533 O   0  0  0  0  0  0  0  0  0  0  0  0
   30.3424  -12.9412   40.4558 N   0  0  0  0  0  0  0  0  0  0  0  0
   30.5559  -12.2322   41.2263 H   0  0  0  0  0  0  0  0  0  0  0  0
   29.4283  -13.9332   40.7973 C   0  0  0  0  0  0  0  0  0  0  0  0
   29.4945  -15.2571   40.4025 C   0  0  0  0  0  0  0  0  0  0  0  0
   28.5492  -16.2214   40.7532 C   0  0  0  0  0  0  0  0  0  0  0  0
   27.5023  -15.8192   41.5326 C   0  0  0  0  0  0  0  0  0  0  0  0
   27.4208  -14.5046   41.9343 C   0  0  0  0  0  0  0  0  0  0  0  0
   28.3370  -13.5335   41.6043 C   0  0  0  0  0  0  0  0  0  0  0  0
   28.1087  -11.9178   42.1618 S   0  0  0  0  0  0  0  0  0  0  0  0
   28.8504  -10.8809   41.3889 O   0  0  0  0  0  0  0  0  0  0  0  0
   28.5241  -11.7671   43.6207 O   0  0  0  0  0  0  0  0  0  0  0  0
   26.3792  -11.4960   42.0478 C   0  0  0  0  0  0  0  0  0  0  0  0
   25.9104  -10.9140   43.3509 C   0  0  0  0  0  0  0  0  0  0  0  0
   26.1798  -10.4206   40.9857 C   0  0  0  0  0  0  0  0  0  0  0  0
 25 26  1  0  0  0
 26 10  1  0  0  0
 10 11  2  0  0  0
 11 12  1  0  0  0
 12 13  2  0  0  0
 13 14  1  0  0  0
 14 15  2  0  0  0
 15  8  1  0  0  0
  8  1  1  0  0  0
  1  2  2  0  0  0
  2  3  1  0  0  0
  3  4  2  0  0  0
  4  5  1  0  0  0
  4  6  1  0  0  0
  6 27  1  0  0  0
 27 29  1  0  0  0
 29 30  2  0  0  0
 30 31  1  0  0  0
 31 32  2  0  0  0
 32 33  1  0  0  0
 33 34  2  0  0  0
 34 35  1  0  0  0
 35 36  2  0  0  0
 35 37  2  0  0  0
 35 38  1  0  0  0
 38 39  1  0  0  0
 38 40  1  0  0  0
  6  7  2  0  0  0
 12 16  1  0  0  0
 16 17  1  0  0  0
 17 18  1  0  0  0
 18 19  1  0  0  0
 19 20  1  0  0  0
 20 21  1  0  0  0
 19 22  1  0  0  0
 22 23  1  0  0  0
 22 24  1  0  0  0
 15 10  1  0  0  0
  7  1  1  0  0  0
 21 16  1  0  0  0
 34 29  1  0  0  0
  8  9  1  0  0  0
 27 28  1  0  0  0
M  END
> <minimizedAffinity>
-7.91697

> <CNNscore>
0.3067064881

> <CNNaffinity>
6.7450284958

> <CNN_VS>
2.0687439442

> <CNNaffinity_variance>
0.2131777704

$$$$
[H]c1nc(N([H])c2c([H])c([H])c(N3C([H])([H])C([H])([H])N(C([H])(C([H])([H])[H])C([H])([H])[H])C([H])([H])C3([H])[H])c([H])c2OC([H])([H])[H])nc(N([H])c2c([H])c([H])c([H])c([H])c2S(=O)(=O)C([H])(C([H])([H])[H])C([H])([H])[H])c1Cl


 40 43  0  0  0  0  0  0  0  0999 V2000
   33.8144  -14.6556   36.4391 C   0  0  0  0  0  0  0  0  0  0  0  0
   34.7210  -13.8032   35.9572 N   0  0  0  0  0  0  0  0  0  0  0  0
   34.7785  -12.5116   36.3079 C   0  0  0  0  0  0  0  0  0  0  0  0
   33.8354  -12.0867   37.2150 C   0  0  0  0  0  0  0  0  0  0  0  0
   33.8012  -10.4078   37.7500 Cl  0  0  0  0  0  0  0  0  0  0  0  0
   32.8771  -12.9407   37.7404 C   0  0  0  0  0  0  0  0  0  0  0  0
   32.8820  -14.2069   37.3455 N   0  0  0  0  0  0  0  0  0  0  0  0
   33.7951  -16.0018   36.0231 N   0  0  0  0  0  0  0  0  0  0  0  0
   32.7972  -16.4485   35.9311 H   0  0  0  0  0  0  0  0  0  0  0  0
   35.9573  -16.7346   36.6610 C   0  0  0  0  0  0  0  0  0  0  0  0
   37.0992  -17.4410   36.4289 C   0  0  0  0  0  0  0  0  0  0  0  0
   37.2942  -18.2389   35.3035 C   0  0  0  0  0  0  0  0  0  0  0  0
   36.2497  -18.2749   34.4234 C   0  0  0  0  0  0  0  0  0  0  0  0
   35.0546  -17.5538   34.6366 C   0  0  0  0  0  0  0  0  0  0  0  0
   34.9019  -16.7919   35.7389 C   0  0  0  0  0  0  0  0  0  0  0  0
   38.4986  -18.9440   35.1522 N   0  0  0  0  0  0  0  0  0  0  0  0
   39.5466  -18.7698   36.1449 C   0  0  0  0  0  0  0  0  0  0  0  0
   40.4540  -19.9842   36.1513 C   0  0  0  0  0  0  0  0  0  0  0  0
   40.8377  -20.4316   34.8845 N   0  0  0  0  0  0  0  0  0  0  0  0
   40.1470  -20.0588   33.7265 C   0  0  0  0  0  0  0  0  0  0  0  0
   38.6765  -19.8180   34.0118 C   0  0  0  0  0  0  0  0  0  0  0  0
   41.3262  -21.7725   34.8255 C   0  0  0  0  0  0  0  0  0  0  0  0
   41.5152  -22.3801   36.1796 C   0  0  0  0  0  0  0  0  0  0  0  0
   40.4647  -22.6966   33.9887 C   0  0  0  0  0  0  0  0  0  0  0  0
   36.8673  -15.0507   38.1257 C   0  0  0  0  0  0  0  0  0  0  0  0
   35.8221  -15.9458   37.8198 O   0  0  0  0  0  0  0  0  0  0  0  0
   31.9409  -12.4570   38.6793 N   0  0  0  0  0  0  0  0  0  0  0  0
   32.3124  -12.4359   39.6810 H   0  0  0  0  0  0  0  0  0  0  0  0
   30.6372  -11.9977   38.5188 C   0  0  0  0  0  0  0  0  0  0  0  0
   30.1608  -11.2983   37.4248 C   0  0  0  0  0  0  0  0  0  0  0  0
   28.8482  -10.8403   37.3061 C   0  0  0  0  0  0  0  0  0  0  0  0
   27.9954  -11.1055   38.3393 C   0  0  0  0  0  0  0  0  0  0  0  0
   28.4535  -11.8004   39.4364 C   0  0  0  0  0  0  0  0  0  0  0  0
   29.7403  -12.2638   39.5803 C   0  0  0  0  0  0  0  0  0  0  0  0
   30.1892  -13.1092   41.0146 S   0  0  0  0  0  0  0  0  0  0  0  0
   29.4492  -12.6940   42.2405 O   0  0  0  0  0  0  0  0  0  0  0  0
   31.6748  -12.9475   41.3156 O   0  0  0  0  0  0  0  0  0  0  0  0
   29.8705  -14.8504   40.7942 C   0  0  0  0  0  0  0  0  0  0  0  0
   29.5850  -15.4878   42.1241 C   0  0  0  0  0  0  0  0  0  0  0  0
   28.6254  -15.0419   39.9354 C   0  0  0  0  0  0  0  0  0  0  0  0
 25 26  1  0  0  0
 26 10  1  0  0  0
 10 11  2  0  0  0
 11 12  1  0  0  0
 12 13  2  0  0  0
 13 14  1  0  0  0
 14 15  2  0  0  0
 15  8  1  0  0  0
  8  1  1  0  0  0
  1  2  2  0  0  0
  2  3  1  0  0  0
  3  4  2  0  0  0
  4  5  1  0  0  0
  4  6  1  0  0  0
  6 27  1  0  0  0
 27 29  1  0  0  0
 29 30  2  0  0  0
 30 31  1  0  0  0
 31 32  2  0  0  0
 32 33  1  0  0  0
 33 34  2  0  0  0
 34 35  1  0  0  0
 35 36  2  0  0  0
 35 37  2  0  0  0
 35 38  1  0  0  0
 38 39  1  0  0  0
 38 40  1  0  0  0
  6  7  2  0  0  0
 12 16  1  0  0  0
 16 17  1  0  0  0
 17 18  1  0  0  0
 18 19  1  0  0  0
 19 20  1  0  0  0
 20 21  1  0  0  0
 19 22  1  0  0  0
 22 23  1  0  0  0
 22 24  1  0  0  0
 15 10  1  0  0  0
  7  1  1  0  0  0
 21 16  1  0  0  0
 34 29  1  0  0  0
  8  9  1  0  0  0
 27 28  1  0  0  0
M  END
> <minimizedAffinity>
-7.55343

> <CNNscore>
0.2903684080

> <CNNaffinity>
6.9570579529

> <CNN_VS>
2.0201098919

> <CNNaffinity_variance>
0.2597428262

$$$$
[H]c1nc(N([H])c2c([H])c([H])c(N3C([H])([H])C([H])([H])N(C([H])(C([H])([H])[H])C([H])([H])[H])C([H])([H])C3([H])[H])c([H])c2OC([H])([H])[H])nc(N([H])c2c([H])c([H])c([H])c([H])c2S(=O)(=O)C([H])(C([H])([H])[H])C([H])([H])[H])c1Cl


 40 43  0  0  0  0  0  0  0  0999 V2000
   31.9890  -19.3542   35.8124 C   0  0  0  0  0  0  0  0  0  0  0  0
   30.8244  -18.9482   35.3028 N   0  0  0  0  0  0  0  0  0  0  0  0
   29.7528  -19.7436   35.1870 C   0  0  0  0  0  0  0  0  0  0  0  0
   29.9065  -21.0369   35.6302 C   0  0  0  0  0  0  0  0  0  0  0  0
   28.5721  -22.1834   35.5247 Cl  0  0  0  0  0  0  0  0  0  0  0  0
   31.0993  -21.4979   36.1673 C   0  0  0  0  0  0  0  0  0  0  0  0
   32.1177  -20.6522   36.2495 N   0  0  0  0  0  0  0  0  0  0  0  0
   33.0866  -18.4747   35.8974 N   0  0  0  0  0  0  0  0  0  0  0  0
   32.8633  -17.4878   36.3216 H   0  0  0  0  0  0  0  0  0  0  0  0
   35.3151  -19.0011   36.5104 C   0  0  0  0  0  0  0  0  0  0  0  0
   36.6230  -19.2212   36.1976 C   0  0  0  0  0  0  0  0  0  0  0  0
   37.1153  -19.2027   34.8943 C   0  0  0  0  0  0  0  0  0  0  0  0
   36.1897  -18.9457   33.9226 C   0  0  0  0  0  0  0  0  0  0  0  0
   34.8282  -18.7138   34.2160 C   0  0  0  0  0  0  0  0  0  0  0  0
   34.3882  -18.7402   35.4906 C   0  0  0  0  0  0  0  0  0  0  0  0
   38.4767  -19.4544   34.6625 N   0  0  0  0  0  0  0  0  0  0  0  0
   38.9899  -19.3591   33.3053 C   0  0  0  0  0  0  0  0  0  0  0  0
   40.4788  -19.0761   33.3387 C   0  0  0  0  0  0  0  0  0  0  0  0
   41.2004  -19.8579   34.2444 N   0  0  0  0  0  0  0  0  0  0  0  0
   40.5770  -20.5424   35.2932 C   0  0  0  0  0  0  0  0  0  0  0  0
   39.3362  -19.8119   35.7714 C   0  0  0  0  0  0  0  0  0  0  0  0
   42.4878  -19.3551   34.6045 C   0  0  0  0  0  0  0  0  0  0  0  0
   42.5008  -17.8695   34.7811 C   0  0  0  0  0  0  0  0  0  0  0  0
   43.0670  -20.0021   35.8465 C   0  0  0  0  0  0  0  0  0  0  0  0
   35.3493  -20.0855   38.6626 C   0  0  0  0  0  0  0  0  0  0  0  0
   34.8802  -19.0339   37.8495 O   0  0  0  0  0  0  0  0  0  0  0  0
   31.1996  -22.8307   36.6206 N   0  0  0  0  0  0  0  0  0  0  0  0
   30.9494  -22.9508   37.6525 H   0  0  0  0  0  0  0  0  0  0  0  0
   31.5529  -24.0002   35.9544 C   0  0  0  0  0  0  0  0  0  0  0  0
   31.1222  -24.3673   34.6924 C   0  0  0  0  0  0  0  0  0  0  0  0
   31.4869  -25.5573   34.0618 C   0  0  0  0  0  0  0  0  0  0  0  0
   32.3184  -26.3992   34.7437 C   0  0  0  0  0  0  0  0  0  0  0  0
   32.7564  -26.0492   36.0014 C   0  0  0  0  0  0  0  0  0  0  0  0
   32.4140  -24.8840   36.6468 C   0  0  0  0  0  0  0  0  0  0  0  0
   33.0212  -24.5735   38.2305 S   0  0  0  0  0  0  0  0  0  0  0  0
   31.9769  -24.4714   39.2897 O   0  0  0  0  0  0  0  0  0  0  0  0
   33.8279  -23.2809   38.2751 O   0  0  0  0  0  0  0  0  0  0  0  0
   34.1071  -25.9034   38.7144 C   0  0  0  0  0  0  0  0  0  0  0  0
   35.5352  -25.5115   38.4624 C   0  0  0  0  0  0  0  0  0  0  0  0
   33.9756  -26.1572   40.2120 C   0  0  0  0  0  0  0  0  0  0  0  0
 25 26  1  0  0  0
 26 10  1  0  0  0
 10 11  2  0  0  0
 11 12  1  0  0  0
 12 13  2  0  0  0
 13 14  1  0  0  0
 14 15  2  0  0  0
 15  8  1  0  0  0
  8  1  1  0  0  0
  1  2  2  0  0  0
  2  3  1  0  0  0
  3  4  2  0  0  0
  4  5  1  0  0  0
  4  6  1  0  0  0
  6 27  1  0  0  0
 27 29  1  0  0  0
 29 30  2  0  0  0
 30 31  1  0  0  0
 31 32  2  0  0  0
 32 33  1  0  0  0
 33 34  2  0  0  0
 34 35  1  0  0  0
 35 36  2  0  0  0
 35 37  2  0  0  0
 35 38  1  0  0  0
 38 39  1  0  0  0
 38 40  1  0  0  0
  6  7  2  0  0  0
 12 16  1  0  0  0
 16 17  1  0  0  0
 17 18  1  0  0  0
 18 19  1  0  0  0
 19 20  1  0  0  0
 20 21  1  0  0  0
 19 22  1  0  0  0
 22 23  1  0  0  0
 22 24  1  0  0  0
 15 10  1  0  0  0
  7  1  1  0  0  0
 21 16  1  0  0  0
 34 29  1  0  0  0
  8  9  1  0  0  0
 27 28  1  0  0  0
M  END
> <minimizedAffinity>
-5.38589

> <CNNscore>
0.2380525321

> <CNNaffinity>
6.1591963768

> <CNN_VS>
1.4662122726

> <CNNaffinity_variance>
0.3277924657

$$$$
[H]c1nc(N([H])c2c([H])c([H])c(N3C([H])([H])C([H])([H])N(C([H])(C([H])([H])[H])C([H])([H])[H])C([H])([H])C3([H])[H])c([H])c2OC([H])([H])[H])nc(N([H])c2c([H])c([H])c([H])c([H])c2S(=O)(=O)C([H])(C([H])([H])[H])C([H])([H])[H])c1Cl


 40 43  0  0  0  0  0  0  0  0999 V2000
   33.6421  -14.2930   36.5027 C   0  0  0  0  0  0  0  0  0  0  0  0
   34.6046  -13.4720   36.0780 N   0  0  0  0  0  0  0  0  0  0  0  0
   34.6780  -12.1802   36.4246 C   0  0  0  0  0  0  0  0  0  0  0  0
   33.6899  -11.7201   37.2639 C   0  0  0  0  0  0  0  0  0  0  0  0
   33.6714  -10.0369   37.7860 Cl  0  0  0  0  0  0  0  0  0  0  0  0
   32.6729  -12.5407   37.7286 C   0  0  0  0  0  0  0  0  0  0  0  0
   32.6653  -13.8094   37.3421 N   0  0  0  0  0  0  0  0  0  0  0  0
   33.6094  -15.6411   36.0939 N   0  0  0  0  0  0  0  0  0  0  0  0
   32.6064  -16.0703   35.9778 H   0  0  0  0  0  0  0  0  0  0  0  0
   35.8055  -16.2928   36.7035 C   0  0  0  0  0  0  0  0  0  0  0  0
   36.9417  -17.0155   36.4945 C   0  0  0  0  0  0  0  0  0  0  0  0
   37.0912  -17.9286   35.4527 C   0  0  0  0  0  0  0  0  0  0  0  0
   36.0072  -18.0628   34.6319 C   0  0  0  0  0  0  0  0  0  0  0  0
   34.8169  -17.3278   34.8232 C   0  0  0  0  0  0  0  0  0  0  0  0
   34.7089  -16.4528   35.8437 C   0  0  0  0  0  0  0  0  0  0  0  0
   38.2936  -18.6410   35.3209 N   0  0  0  0  0  0  0  0  0  0  0  0
   38.9527  -19.1386   36.5176 C   0  0  0  0  0  0  0  0  0  0  0  0
   39.8340  -20.3203   36.1640 C   0  0  0  0  0  0  0  0  0  0  0  0
   40.6227  -20.1390   35.0251 N   0  0  0  0  0  0  0  0  0  0  0  0
   40.3432  -19.1452   34.0810 C   0  0  0  0  0  0  0  0  0  0  0  0
   38.8557  -18.8565   34.0042 C   0  0  0  0  0  0  0  0  0  0  0  0
   41.1328  -21.3336   34.4312 C   0  0  0  0  0  0  0  0  0  0  0  0
   40.2814  -22.5306   34.7151 C   0  0  0  0  0  0  0  0  0  0  0  0
   41.3442  -21.2254   32.9345 C   0  0  0  0  0  0  0  0  0  0  0  0
   36.9001  -14.7311   38.1772 C   0  0  0  0  0  0  0  0  0  0  0  0
   35.7174  -15.3850   37.7765 O   0  0  0  0  0  0  0  0  0  0  0  0
   31.6912  -12.0219   38.5998 N   0  0  0  0  0  0  0  0  0  0  0  0
   31.6441  -10.9543   38.6029 H   0  0  0  0  0  0  0  0  0  0  0  0
   30.7786  -12.6597   39.4345 C   0  0  0  0  0  0  0  0  0  0  0  0
   31.0450  -13.7675   40.2186 C   0  0  0  0  0  0  0  0  0  0  0  0
   30.0982  -14.3896   41.0330 C   0  0  0  0  0  0  0  0  0  0  0  0
   28.8384  -13.8624   41.0459 C   0  0  0  0  0  0  0  0  0  0  0  0
   28.5560  -12.7597   40.2709 C   0  0  0  0  0  0  0  0  0  0  0  0
   29.4683  -12.1263   39.4597 C   0  0  0  0  0  0  0  0  0  0  0  0
   28.9798  -10.7607   38.5271 S   0  0  0  0  0  0  0  0  0  0  0  0
   28.1384  -11.0853   37.3398 O   0  0  0  0  0  0  0  0  0  0  0  0
   30.1821   -9.9736   38.0185 O   0  0  0  0  0  0  0  0  0  0  0  0
   28.0128   -9.6658   39.5507 C   0  0  0  0  0  0  0  0  0  0  0  0
   28.4180   -8.2417   39.2970 C   0  0  0  0  0  0  0  0  0  0  0  0
   26.5388   -9.7795   39.1782 C   0  0  0  0  0  0  0  0  0  0  0  0
 25 26  1  0  0  0
 26 10  1  0  0  0
 10 11  2  0  0  0
 11 12  1  0  0  0
 12 13  2  0  0  0
 13 14  1  0  0  0
 14 15  2  0  0  0
 15  8  1  0  0  0
  8  1  1  0  0  0
  1  2  2  0  0  0
  2  3  1  0  0  0
  3  4  2  0  0  0
  4  5  1  0  0  0
  4  6  1  0  0  0
  6 27  1  0  0  0
 27 29  1  0  0  0
 29 30  2  0  0  0
 30 31  1  0  0  0
 31 32  2  0  0  0
 32 33  1  0  0  0
 33 34  2  0  0  0
 34 35  1  0  0  0
 35 36  2  0  0  0
 35 37  2  0  0  0
 35 38  1  0  0  0
 38 39  1  0  0  0
 38 40  1  0  0  0
  6  7  2  0  0  0
 12 16  1  0  0  0
 16 17  1  0  0  0
 17 18  1  0  0  0
 18 19  1  0  0  0
 19 20  1  0  0  0
 20 21  1  0  0  0
 19 22  1  0  0  0
 22 23  1  0  0  0
 22 24  1  0  0  0
 15 10  1  0  0  0
  7  1  1  0  0  0
 21 16  1  0  0  0
 34 29  1  0  0  0
  8  9  1  0  0  0
 27 28  1  0  0  0
M  END
> <minimizedAffinity>
-7.59072

> <CNNscore>
0.2099964619

> <CNNaffinity>
6.7704763412

> <CNN_VS>
1.4217760563

> <CNNaffinity_variance>
0.2395426333

$$$$
[H]c1nc(N([H])c2c([H])c([H])c(C([H])(C([H])([H])[H])C([H])([H])[H])c([H])c2OC([H])([H])[H])nc(N([H])c2c([H])c([H])c([H])c([H])c2S(=O)(=O)C([H])(C([H])([H])[H])C([H])([H])[H])c1Cl


 34 36  0  0  0  0  0  0  0  0999 V2000
   33.3658  -12.9851   36.8065 C   0  0  0  0  0  0  0  0  0  0  0  0
   34.4577  -12.4287   37.3336 N   0  0  0  0  0  0  0  0  0  0  0  0
   35.5724  -13.1168   37.6061 C   0  0  0  0  0  0  0  0  0  0  0  0
   35.6226  -14.4525   37.3421 C   0  0  0  0  0  0  0  0  0  0  0  0
   37.0366  -15.3770   37.6766 Cl  0  0  0  0  0  0  0  0  0  0  0  0
   34.5086  -15.1016   36.7868 C   0  0  0  0  0  0  0  0  0  0  0  0
   33.4708  -14.3230   36.5626 N   0  0  0  0  0  0  0  0  0  0  0  0
   32.1544  -12.3128   36.4945 N   0  0  0  0  0  0  0  0  0  0  0  0
   32.0013  -12.1078   35.4523 H   0  0  0  0  0  0  0  0  0  0  0  0
   30.8342  -10.5258   37.3909 C   0  0  0  0  0  0  0  0  0  0  0  0
   29.8579  -10.0104   38.2074 C   0  0  0  0  0  0  0  0  0  0  0  0
   29.1341  -10.8149   39.0389 C   0  0  0  0  0  0  0  0  0  0  0  0
   29.4080  -12.1534   39.0378 C   0  0  0  0  0  0  0  0  0  0  0  0
   30.4093  -12.6734   38.1989 C   0  0  0  0  0  0  0  0  0  0  0  0
   31.1513  -11.8901   37.3542 C   0  0  0  0  0  0  0  0  0  0  0  0
   28.0723  -10.2816   39.9320 C   0  0  0  0  0  0  0  0  0  0  0  0
   27.9305   -8.7704   39.7885 C   0  0  0  0  0  0  0  0  0  0  0  0
   28.4246  -10.5625   41.3868 C   0  0  0  0  0  0  0  0  0  0  0  0
   32.2987   -8.5834   37.0491 C   0  0  0  0  0  0  0  0  0  0  0  0
   31.5136   -9.6415   36.5859 O   0  0  0  0  0  0  0  0  0  0  0  0
   34.5352  -16.4658   36.5079 N   0  0  0  0  0  0  0  0  0  0  0  0
   33.8806  -17.0706   37.1430 H   0  0  0  0  0  0  0  0  0  0  0  0
   35.2334  -17.2299   35.5743 C   0  0  0  0  0  0  0  0  0  0  0  0
   36.3984  -16.7977   35.0155 C   0  0  0  0  0  0  0  0  0  0  0  0
   37.1371  -17.5214   34.0770 C   0  0  0  0  0  0  0  0  0  0  0  0
   36.6750  -18.7406   33.6856 C   0  0  0  0  0  0  0  0  0  0  0  0
   35.5077  -19.2178   34.2198 C   0  0  0  0  0  0  0  0  0  0  0  0
   34.7878  -18.4887   35.1481 C   0  0  0  0  0  0  0  0  0  0  0  0
   33.3296  -19.1273   35.7929 S   0  0  0  0  0  0  0  0  0  0  0  0
   33.4848  -19.7716   37.1451 O   0  0  0  0  0  0  0  0  0  0  0  0
   32.3068  -18.0253   35.9348 O   0  0  0  0  0  0  0  0  0  0  0  0
   32.5800  -20.3534   34.7524 C   0  0  0  0  0  0  0  0  0  0  0  0
   32.5840  -21.7236   35.3775 C   0  0  0  0  0  0  0  0  0  0  0  0
   31.2575  -19.9355   34.1830 C   0  0  0  0  0  0  0  0  0  0  0  0
 19 20  1  0  0  0
 20 10  1  0  0  0
 10 11  2  0  0  0
 11 12  1  0  0  0
 12 13  2  0  0  0
 13 14  1  0  0  0
 14 15  2  0  0  0
 15  8  1  0  0  0
  8  1  1  0  0  0
  1  2  2  0  0  0
  2  3  1  0  0  0
  3  4  2  0  0  0
  4  5  1  0  0  0
  4  6  1  0  0  0
  6 21  1  0  0  0
 21 23  1  0  0  0
 23 24  2  0  0  0
 24 25  1  0  0  0
 25 26  2  0  0  0
 26 27  1  0  0  0
 27 28  2  0  0  0
 28 29  1  0  0  0
 29 30  2  0  0  0
 29 31  2  0  0  0
 29 32  1  0  0  0
 32 33  1  0  0  0
 32 34  1  0  0  0
  6  7  2  0  0  0
 12 16  1  0  0  0
 16 17  1  0  0  0
 16 18  1  0  0  0
 15 10  1  0  0  0
  7  1  1  0  0  0
 28 23  1  0  0  0
  8  9  1  0  0  0
 21 22  1  0  0  0
M  END
> <minimizedAffinity>
-7.60569

> <CNNscore>
0.4603870213

> <CNNaffinity>
7.0613045692

> <CNN_VS>
3.2509329319

> <CNNaffinity_variance>
0.1436106712

$$$$
[H]c1nc(N([H])c2c([H])c([H])c(C([H])(C([H])([H])[H])C([H])([H])[H])c([H])c2OC([H])([H])[H])nc(N([H])c2c([H])c([H])c([H])c([H])c2S(=O)(=O)C([H])(C([H])([H])[H])C([H])([H])[H])c1Cl


 34 36  0  0  0  0  0  0  0  0999 V2000
   32.9971  -12.7768   36.8398 C   0  0  0  0  0  0  0  0  0  0  0  0
   33.9709  -11.8922   37.0608 N   0  0  0  0  0  0  0  0  0  0  0  0
   35.2600  -12.2333   37.1706 C   0  0  0  0  0  0  0  0  0  0  0  0
   35.6245  -13.5410   37.0550 C   0  0  0  0  0  0  0  0  0  0  0  0
   37.2718  -14.0249   37.1893 Cl  0  0  0  0  0  0  0  0  0  0  0  0
   34.6500  -14.5242   36.8219 C   0  0  0  0  0  0  0  0  0  0  0  0
   33.4175  -14.0701   36.7326 N   0  0  0  0  0  0  0  0  0  0  0  0
   31.6139  -12.4809   36.7136 N   0  0  0  0  0  0  0  0  0  0  0  0
   31.1860  -12.6991   35.7539 H   0  0  0  0  0  0  0  0  0  0  0  0
   30.5350  -10.5667   37.6684 C   0  0  0  0  0  0  0  0  0  0  0  0
   29.6996   -9.9482   38.5657 C   0  0  0  0  0  0  0  0  0  0  0  0
   29.0252  -10.6631   39.5126 C   0  0  0  0  0  0  0  0  0  0  0  0
   29.2040  -12.0172   39.5445 C   0  0  0  0  0  0  0  0  0  0  0  0
   30.0612  -12.6430   38.6223 C   0  0  0  0  0  0  0  0  0  0  0  0
   30.7507  -11.9512   37.6613 C   0  0  0  0  0  0  0  0  0  0  0  0
   28.1155  -10.0174   40.4948 C   0  0  0  0  0  0  0  0  0  0  0  0
   27.1587  -11.0285   41.1167 C   0  0  0  0  0  0  0  0  0  0  0  0
   27.2640   -8.9620   39.8017 C   0  0  0  0  0  0  0  0  0  0  0  0
   32.0352   -8.7162   37.0693 C   0  0  0  0  0  0  0  0  0  0  0  0
   31.1741   -9.7680   36.7490 O   0  0  0  0  0  0  0  0  0  0  0  0
   34.9973  -15.8674   36.7000 N   0  0  0  0  0  0  0  0  0  0  0  0
   35.7635  -16.2027   37.4057 H   0  0  0  0  0  0  0  0  0  0  0  0
   34.5644  -16.8863   35.8529 C   0  0  0  0  0  0  0  0  0  0  0  0
   33.5535  -16.6996   34.9588 C   0  0  0  0  0  0  0  0  0  0  0  0
   33.0810  -17.6842   34.0883 C   0  0  0  0  0  0  0  0  0  0  0  0
   33.6591  -18.9161   34.1243 C   0  0  0  0  0  0  0  0  0  0  0  0
   34.6796  -19.1518   35.0069 C   0  0  0  0  0  0  0  0  0  0  0  0
   35.1359  -18.1661   35.8623 C   0  0  0  0  0  0  0  0  0  0  0  0
   36.4195  -18.5060   36.9517 S   0  0  0  0  0  0  0  0  0  0  0  0
   37.4943  -17.4518   36.9844 O   0  0  0  0  0  0  0  0  0  0  0  0
   35.8781  -18.6397   38.3552 O   0  0  0  0  0  0  0  0  0  0  0  0
   37.2482  -20.0358   36.6041 C   0  0  0  0  0  0  0  0  0  0  0  0
   38.7197  -19.8501   36.3420 C   0  0  0  0  0  0  0  0  0  0  0  0
   36.9248  -21.1319   37.5745 C   0  0  0  0  0  0  0  0  0  0  0  0
 19 20  1  0  0  0
 20 10  1  0  0  0
 10 11  2  0  0  0
 11 12  1  0  0  0
 12 13  2  0  0  0
 13 14  1  0  0  0
 14 15  2  0  0  0
 15  8  1  0  0  0
  8  1  1  0  0  0
  1  2  2  0  0  0
  2  3  1  0  0  0
  3  4  2  0  0  0
  4  5  1  0  0  0
  4  6  1  0  0  0
  6 21  1  0  0  0
 21 23  1  0  0  0
 23 24  2  0  0  0
 24 25  1  0  0  0
 25 26  2  0  0  0
 26 27  1  0  0  0
 27 28  2  0  0  0
 28 29  1  0  0  0
 29 30  2  0  0  0
 29 31  2  0  0  0
 29 32  1  0  0  0
 32 33  1  0  0  0
 32 34  1  0  0  0
  6  7  2  0  0  0
 12 16  1  0  0  0
 16 17  1  0  0  0
 16 18  1  0  0  0
 15 10  1  0  0  0
  7  1  1  0  0  0
 28 23  1  0  0  0
  8  9  1  0  0  0
 21 22  1  0  0  0
M  END
> <minimizedAffinity>
-7.38039

> <CNNscore>
0.3952212036

> <CNNaffinity>
6.9052762985

> <CNN_VS>
2.7291116714

> <CNNaffinity_variance>
0.0883088559

$$$$
[H]c1nc(N([H])c2c([H])c([H])c(C([H])(C([H])([H])[H])C([H])([H])[H])c([H])c2OC([H])([H])[H])nc(N([H])c2c([H])c([H])c([H])c([H])c2S(=O)(=O)C([H])(C([H])([H])[H])C([H])([H])[H])c1Cl


 34 36  0  0  0  0  0  0  0  0999 V2000
   33.2829  -13.1253   36.8453 C   0  0  0  0  0  0  0  0  0  0  0  0
   34.3613  -12.4747   37.2850 N   0  0  0  0  0  0  0  0  0  0  0  0
   35.5872  -13.0107   37.2955 C   0  0  0  0  0  0  0  0  0  0  0  0
   35.7722  -14.2815   36.8403 C   0  0  0  0  0  0  0  0  0  0  0  0
   37.3323  -15.0108   36.8353 Cl  0  0  0  0  0  0  0  0  0  0  0  0
   34.6799  -15.0231   36.3631 C   0  0  0  0  0  0  0  0  0  0  0  0
   33.5249  -14.3923   36.4016 N   0  0  0  0  0  0  0  0  0  0  0  0
   31.9581  -12.6149   36.8076 N   0  0  0  0  0  0  0  0  0  0  0  0
   31.5917  -12.3677   35.8298 H   0  0  0  0  0  0  0  0  0  0  0  0
   30.4139  -11.1671   37.9295 C   0  0  0  0  0  0  0  0  0  0  0  0
   29.5289  -10.8562   38.9323 C   0  0  0  0  0  0  0  0  0  0  0  0
   29.2515  -11.7441   39.9310 C   0  0  0  0  0  0  0  0  0  0  0  0
   29.8806  -12.9565   39.9066 C   0  0  0  0  0  0  0  0  0  0  0  0
   30.7856  -13.2673   38.8764 C   0  0  0  0  0  0  0  0  0  0  0  0
   31.0831  -12.3962   37.8614 C   0  0  0  0  0  0  0  0  0  0  0  0
   28.2977  -11.4315   41.0274 C   0  0  0  0  0  0  0  0  0  0  0  0
   28.3088   -9.9457   41.3691 C   0  0  0  0  0  0  0  0  0  0  0  0
   28.6908  -12.1850   42.2912 C   0  0  0  0  0  0  0  0  0  0  0  0
   31.5398   -9.1560   37.0798 C   0  0  0  0  0  0  0  0  0  0  0  0
   30.6330  -10.2119   36.9645 O   0  0  0  0  0  0  0  0  0  0  0  0
   34.8432  -16.3237   35.8926 N   0  0  0  0  0  0  0  0  0  0  0  0
   34.7880  -16.4216   34.8040 H   0  0  0  0  0  0  0  0  0  0  0  0
   35.0653  -17.5428   36.5310 C   0  0  0  0  0  0  0  0  0  0  0  0
   35.8634  -17.6459   37.6303 C   0  0  0  0  0  0  0  0  0  0  0  0
   36.1198  -18.8401   38.3074 C   0  0  0  0  0  0  0  0  0  0  0  0
   35.5408  -19.9842   37.8504 C   0  0  0  0  0  0  0  0  0  0  0  0
   34.7299  -19.9306   36.7480 C   0  0  0  0  0  0  0  0  0  0  0  0
   34.4861  -18.7401   36.0886 C   0  0  0  0  0  0  0  0  0  0  0  0
   33.4608  -18.7197   34.7109 S   0  0  0  0  0  0  0  0  0  0  0  0
   32.8915  -17.3637   34.3875 O   0  0  0  0  0  0  0  0  0  0  0  0
   34.2265  -19.1871   33.4959 O   0  0  0  0  0  0  0  0  0  0  0  0
   32.0689  -19.8103   34.8559 C   0  0  0  0  0  0  0  0  0  0  0  0
   30.7611  -19.1204   34.5696 C   0  0  0  0  0  0  0  0  0  0  0  0
   32.2493  -21.1175   34.1440 C   0  0  0  0  0  0  0  0  0  0  0  0
 19 20  1  0  0  0
 20 10  1  0  0  0
 10 11  2  0  0  0
 11 12  1  0  0  0
 12 13  2  0  0  0
 13 14  1  0  0  0
 14 15  2  0  0  0
 15  8  1  0  0  0
  8  1  1  0  0  0
  1  2  2  0  0  0
  2  3  1  0  0  0
  3  4  2  0  0  0
  4  5  1  0  0  0
  4  6  1  0  0  0
  6 21  1  0  0  0
 21 23  1  0  0  0
 23 24  2  0  0  0
 24 25  1  0  0  0
 25 26  2  0  0  0
 26 27  1  0  0  0
 27 28  2  0  0  0
 28 29  1  0  0  0
 29 30  2  0  0  0
 29 31  2  0  0  0
 29 32  1  0  0  0
 32 33  1  0  0  0
 32 34  1  0  0  0
  6  7  2  0  0  0
 12 16  1  0  0  0
 16 17  1  0  0  0
 16 18  1  0  0  0
 15 10  1  0  0  0
  7  1  1  0  0  0
 28 23  1  0  0  0
  8  9  1  0  0  0
 21 22  1  0  0  0
M  END
> <minimizedAffinity>
-7.03380

> <CNNscore>
0.2697092295

> <CNNaffinity>
6.6882514954

> <CNN_VS>
1.8038831949

> <CNNaffinity_variance>
0.1046127453

$$$$
[H]c1nc(N([H])c2c([H])c([H])c(C([H])(C([H])([H])[H])C([H])([H])[H])c([H])c2OC([H])([H])[H])nc(N([H])c2c([H])c([H])c([H])c([H])c2S(=O)(=O)C([H])(C([H])([H])[H])C([H])([H])[H])c1Cl


 34 36  0  0  0  0  0  0  0  0999 V2000
   32.7805  -19.3282   35.0647 C   0  0  0  0  0  0  0  0  0  0  0  0
   31.6318  -18.8024   34.6364 N   0  0  0  0  0  0  0  0  0  0  0  0
   30.4472  -19.4051   34.7905 C   0  0  0  0  0  0  0  0  0  0  0  0
   30.3816  -20.6158   35.4118 C   0  0  0  0  0  0  0  0  0  0  0  0
   28.8785  -21.4272   35.6318 Cl  0  0  0  0  0  0  0  0  0  0  0  0
   31.5530  -21.2262   35.8874 C   0  0  0  0  0  0  0  0  0  0  0  0
   32.6571  -20.5400   35.6788 N   0  0  0  0  0  0  0  0  0  0  0  0
   34.0672  -18.7418   34.9328 N   0  0  0  0  0  0  0  0  0  0  0  0
   34.8027  -19.3580   34.4522 H   0  0  0  0  0  0  0  0  0  0  0  0
   35.8711  -17.2485   35.4386 C   0  0  0  0  0  0  0  0  0  0  0  0
   36.3913  -16.0403   35.8325 C   0  0  0  0  0  0  0  0  0  0  0  0
   35.5791  -14.9918   36.1542 C   0  0  0  0  0  0  0  0  0  0  0  0
   34.2278  -15.1768   36.0736 C   0  0  0  0  0  0  0  0  0  0  0  0
   33.7029  -16.4170   35.6695 C   0  0  0  0  0  0  0  0  0  0  0  0
   34.4938  -17.4865   35.3406 C   0  0  0  0  0  0  0  0  0  0  0  0
   36.1174  -13.6744   36.5833 C   0  0  0  0  0  0  0  0  0  0  0  0
   37.2202  -13.8352   37.6238 C   0  0  0  0  0  0  0  0  0  0  0  0
   35.0137  -12.8438   37.2246 C   0  0  0  0  0  0  0  0  0  0  0  0
   37.5900  -18.2643   34.0076 C   0  0  0  0  0  0  0  0  0  0  0  0
   36.7639  -18.2492   35.1336 O   0  0  0  0  0  0  0  0  0  0  0  0
   31.5120  -22.4633   36.5258 N   0  0  0  0  0  0  0  0  0  0  0  0
   31.7134  -23.3172   35.8717 H   0  0  0  0  0  0  0  0  0  0  0  0
   31.2639  -22.8431   37.8438 C   0  0  0  0  0  0  0  0  0  0  0  0
   29.9991  -23.0340   38.3130 C   0  0  0  0  0  0  0  0  0  0  0  0
   29.6942  -23.4137   39.6219 C   0  0  0  0  0  0  0  0  0  0  0  0
   30.7179  -23.6097   40.4975 C   0  0  0  0  0  0  0  0  0  0  0  0
   32.0073  -23.4298   40.0719 C   0  0  0  0  0  0  0  0  0  0  0  0
   32.2924  -23.0536   38.7724 C   0  0  0  0  0  0  0  0  0  0  0  0
   33.9247  -22.8412   38.2820 S   0  0  0  0  0  0  0  0  0  0  0  0
   34.2382  -23.4104   36.9236 O   0  0  0  0  0  0  0  0  0  0  0  0
   34.2595  -21.3692   38.2407 O   0  0  0  0  0  0  0  0  0  0  0  0
   35.0936  -23.5730   39.3983 C   0  0  0  0  0  0  0  0  0  0  0  0
   35.6785  -24.8544   38.8653 C   0  0  0  0  0  0  0  0  0  0  0  0
   36.1056  -22.6047   39.9332 C   0  0  0  0  0  0  0  0  0  0  0  0
 19 20  1  0  0  0
 20 10  1  0  0  0
 10 11  2  0  0  0
 11 12  1  0  0  0
 12 13  2  0  0  0
 13 14  1  0  0  0
 14 15  2  0  0  0
 15  8  1  0  0  0
  8  1  1  0  0  0
  1  2  2  0  0  0
  2  3  1  0  0  0
  3  4  2  0  0  0
  4  5  1  0  0  0
  4  6  1  0  0  0
  6 21  1  0  0  0
 21 23  1  0  0  0
 23 24  2  0  0  0
 24 25  1  0  0  0
 25 26  2  0  0  0
 26 27  1  0  0  0
 27 28  2  0  0  0
 28 29  1  0  0  0
 29 30  2  0  0  0
 29 31  2  0  0  0
 29 32  1  0  0  0
 32 33  1  0  0  0
 32 34  1  0  0  0
  6  7  2  0  0  0
 12 16  1  0  0  0
 16 17  1  0  0  0
 16 18  1  0  0  0
 15 10  1  0  0  0
  7  1  1  0  0  0
 28 23  1  0  0  0
  8  9  1  0  0  0
 21 22  1  0  0  0
M  END
> <minimizedAffinity>
-6.15132

> <CNNscore>
0.2677059472

> <CNNaffinity>
5.9590721130

> <CNN_VS>
1.5952790976

> <CNNaffinity_variance>
0.2034399807

$$$$
[H]c1nc(N([H])c2c([H])c([H])c(C([H])(C([H])([H])[H])C([H])([H])[H])c([H])c2OC([H])([H])[H])nc(N([H])c2c([H])c([H])c([H])c([H])c2S(=O)(=O)C([H])(C([H])([H])[H])C([H])([H])[H])c1Cl


 34 36  0  0  0  0  0  0  0  0999 V2000
   32.8861  -19.0870   35.0757 C   0  0  0  0  0  0  0  0  0  0  0  0
   31.7152  -18.9473   34.4520 N   0  0  0  0  0  0  0  0  0  0  0  0
   30.6395  -19.6900   34.7372 C   0  0  0  0  0  0  0  0  0  0  0  0
   30.7154  -20.6432   35.7078 C   0  0  0  0  0  0  0  0  0  0  0  0
   29.3558  -21.6218   36.1077 Cl  0  0  0  0  0  0  0  0  0  0  0  0
   31.9179  -20.8431   36.4040 C   0  0  0  0  0  0  0  0  0  0  0  0
   32.9062  -20.0544   36.0371 N   0  0  0  0  0  0  0  0  0  0  0  0
   34.0623  -18.3330   34.8211 N   0  0  0  0  0  0  0  0  0  0  0  0
   34.6939  -18.7204   34.0447 H   0  0  0  0  0  0  0  0  0  0  0  0
   35.8279  -17.1038   35.8753 C   0  0  0  0  0  0  0  0  0  0  0  0
   36.3527  -15.9979   36.4975 C   0  0  0  0  0  0  0  0  0  0  0  0
   35.5921  -14.8883   36.7273 C   0  0  0  0  0  0  0  0  0  0  0  0
   34.2881  -14.9069   36.3200 C   0  0  0  0  0  0  0  0  0  0  0  0
   33.7582  -16.0431   35.6836 C   0  0  0  0  0  0  0  0  0  0  0  0
   34.4978  -17.1705   35.4399 C   0  0  0  0  0  0  0  0  0  0  0  0
   36.1365  -13.6790   37.3986 C   0  0  0  0  0  0  0  0  0  0  0  0
   35.6908  -12.4024   36.6943 C   0  0  0  0  0  0  0  0  0  0  0  0
   37.6588  -13.7030   37.3623 C   0  0  0  0  0  0  0  0  0  0  0  0
   37.8660  -18.3825   36.3710 C   0  0  0  0  0  0  0  0  0  0  0  0
   36.6670  -18.1768   35.6849 O   0  0  0  0  0  0  0  0  0  0  0  0
   32.0207  -21.8109   37.4003 N   0  0  0  0  0  0  0  0  0  0  0  0
   31.5751  -21.5240   38.3577 H   0  0  0  0  0  0  0  0  0  0  0  0
   32.5819  -23.0865   37.4297 C   0  0  0  0  0  0  0  0  0  0  0  0
   32.0893  -24.1083   36.6750 C   0  0  0  0  0  0  0  0  0  0  0  0
   32.6120  -25.4033   36.6663 C   0  0  0  0  0  0  0  0  0  0  0  0
   33.6843  -25.6772   37.4589 C   0  0  0  0  0  0  0  0  0  0  0  0
   34.2148  -24.6818   38.2358 C   0  0  0  0  0  0  0  0  0  0  0  0
   33.6855  -23.4046   38.2331 C   0  0  0  0  0  0  0  0  0  0  0  0
   34.3843  -22.1869   39.2225 S   0  0  0  0  0  0  0  0  0  0  0  0
   33.3827  -21.2531   39.8489 O   0  0  0  0  0  0  0  0  0  0  0  0
   35.1666  -22.8259   40.3451 O   0  0  0  0  0  0  0  0  0  0  0  0
   35.5370  -21.1540   38.3550 C   0  0  0  0  0  0  0  0  0  0  0  0
   35.3492  -19.6918   38.6632 C   0  0  0  0  0  0  0  0  0  0  0  0
   36.9566  -21.6285   38.4414 C   0  0  0  0  0  0  0  0  0  0  0  0
 19 20  1  0  0  0
 20 10  1  0  0  0
 10 11  2  0  0  0
 11 12  1  0  0  0
 12 13  2  0  0  0
 13 14  1  0  0  0
 14 15  2  0  0  0
 15  8  1  0  0  0
  8  1  1  0  0  0
  1  2  2  0  0  0
  2  3  1  0  0  0
  3  4  2  0  0  0
  4  5  1  0  0  0
  4  6  1  0  0  0
  6 21  1  0  0  0
 21 23  1  0  0  0
 23 24  2  0  0  0
 24 25  1  0  0  0
 25 26  2  0  0  0
 26 27  1  0  0  0
 27 28  2  0  0  0
 28 29  1  0  0  0
 29 30  2  0  0  0
 29 31  2  0  0  0
 29 32  1  0  0  0
 32 33  1  0  0  0
 32 34  1  0  0  0
  6  7  2  0  0  0
 12 16  1  0  0  0
 16 17  1  0  0  0
 16 18  1  0  0  0
 15 10  1  0  0  0
  7  1  1  0  0  0
 28 23  1  0  0  0
  8  9  1  0  0  0
 21 22  1  0  0  0
M  END
> <minimizedAffinity>
-6.44135

> <CNNscore>
0.2495158762

> <CNNaffinity>
6.0974397659

> <CNN_VS>
1.5214080811

> <CNNaffinity_variance>
0.3914257884

$$$$
[H]c1nc(N([H])c2c([H])c([H])c(C([H])(C([H])([H])[H])C([H])([H])[H])c([H])c2OC([H])([H])[H])nc(N([H])c2c([H])c([H])c([H])c([H])c2S(=O)(=O)C([H])(C([H])([H])[H])C([H])([H])[H])c1Cl


 34 36  0  0  0  0  0  0  0  0999 V2000
   32.8985  -13.0494   37.0031 C   0  0  0  0  0  0  0  0  0  0  0  0
   33.7514  -12.0699   37.3073 N   0  0  0  0  0  0  0  0  0  0  0  0
   35.0801  -12.2280   37.3059 C   0  0  0  0  0  0  0  0  0  0  0  0
   35.6155  -13.4381   36.9816 C   0  0  0  0  0  0  0  0  0  0  0  0
   37.3196  -13.6865   36.9668 Cl  0  0  0  0  0  0  0  0  0  0  0  0
   34.7748  -14.5127   36.6509 C   0  0  0  0  0  0  0  0  0  0  0  0
   33.4876  -14.2383   36.6866 N   0  0  0  0  0  0  0  0  0  0  0  0
   31.4821  -12.9472   36.9860 N   0  0  0  0  0  0  0  0  0  0  0  0
   30.9794  -13.6722   36.3751 H   0  0  0  0  0  0  0  0  0  0  0  0
   30.0141  -12.4593   38.8154 C   0  0  0  0  0  0  0  0  0  0  0  0
   29.1906  -11.6360   39.5431 C   0  0  0  0  0  0  0  0  0  0  0  0
   28.9657  -10.3449   39.1622 C   0  0  0  0  0  0  0  0  0  0  0  0
   29.5845   -9.8908   38.0320 C   0  0  0  0  0  0  0  0  0  0  0  0
   30.4262  -10.7400   37.2923 C   0  0  0  0  0  0  0  0  0  0  0  0
   30.6703  -12.0398   37.6507 C   0  0  0  0  0  0  0  0  0  0  0  0
   28.0789   -9.4340   39.9326 C   0  0  0  0  0  0  0  0  0  0  0  0
   28.3531   -7.9726   39.5955 C   0  0  0  0  0  0  0  0  0  0  0  0
   28.3270   -9.6039   41.4255 C   0  0  0  0  0  0  0  0  0  0  0  0
   29.4637  -14.3180   40.3242 C   0  0  0  0  0  0  0  0  0  0  0  0
   30.1831  -13.7452   39.2730 O   0  0  0  0  0  0  0  0  0  0  0  0
   35.2977  -15.7593   36.3159 N   0  0  0  0  0  0  0  0  0  0  0  0
   36.3603  -15.8814   36.5472 H   0  0  0  0  0  0  0  0  0  0  0  0
   34.7393  -16.8985   35.7387 C   0  0  0  0  0  0  0  0  0  0  0  0
   33.5283  -16.8709   35.1149 C   0  0  0  0  0  0  0  0  0  0  0  0
   32.9233  -17.9807   34.5211 C   0  0  0  0  0  0  0  0  0  0  0  0
   33.5749  -19.1753   34.5604 C   0  0  0  0  0  0  0  0  0  0  0  0
   34.7956  -19.2528   35.1766 C   0  0  0  0  0  0  0  0  0  0  0  0
   35.3811  -18.1444   35.7600 C   0  0  0  0  0  0  0  0  0  0  0  0
   36.9144  -18.2877   36.5205 S   0  0  0  0  0  0  0  0  0  0  0  0
   37.4128  -17.0117   37.1457 O   0  0  0  0  0  0  0  0  0  0  0  0
   36.8486  -19.3279   37.6134 O   0  0  0  0  0  0  0  0  0  0  0  0
   38.1971  -18.8234   35.4180 C   0  0  0  0  0  0  0  0  0  0  0  0
   38.5002  -20.2925   35.5535 C   0  0  0  0  0  0  0  0  0  0  0  0
   38.0135  -18.3559   34.0054 C   0  0  0  0  0  0  0  0  0  0  0  0
 19 20  1  0  0  0
 20 10  1  0  0  0
 10 11  2  0  0  0
 11 12  1  0  0  0
 12 13  2  0  0  0
 13 14  1  0  0  0
 14 15  2  0  0  0
 15  8  1  0  0  0
  8  1  1  0  0  0
  1  2  2  0  0  0
  2  3  1  0  0  0
  3  4  2  0  0  0
  4  5  1  0  0  0
  4  6  1  0  0  0
  6 21  1  0  0  0
 21 23  1  0  0  0
 23 24  2  0  0  0
 24 25  1  0  0  0
 25 26  2  0  0  0
 26 27  1  0  0  0
 27 28  2  0  0  0
 28 29  1  0  0  0
 29 30  2  0  0  0
 29 31  2  0  0  0
 29 32  1  0  0  0
 32 33  1  0  0  0
 32 34  1  0  0  0
  6  7  2  0  0  0
 12 16  1  0  0  0
 16 17  1  0  0  0
 16 18  1  0  0  0
 15 10  1  0  0  0
  7  1  1  0  0  0
 28 23  1  0  0  0
  8  9  1  0  0  0
 21 22  1  0  0  0
M  END
> <minimizedAffinity>
-7.49624

> <CNNscore>
0.2464120090

> <CNNaffinity>
6.6570634842

> <CNN_VS>
1.6403803825

> <CNNaffinity_variance>
0.0827243701

$$$$
[H]c1nc(N([H])c2c([H])c([H])c(C([H])(C([H])([H])[H])C([H])([H])[H])c([H])c2OC([H])([H])[H])nc(N([H])c2c([H])c([H])c([H])c([H])c2S(=O)(=O)C([H])(C([H])([H])[H])C([H])([H])[H])c1Cl


 34 36  0  0  0  0  0  0  0  0999 V2000
   34.3842  -20.1307   36.6600 C   0  0  0  0  0  0  0  0  0  0  0  0
   33.2183  -20.6034   36.2166 N   0  0  0  0  0  0  0  0  0  0  0  0
   32.4809  -21.4901   36.8951 C   0  0  0  0  0  0  0  0  0  0  0  0
   32.9183  -21.9496   38.1009 C   0  0  0  0  0  0  0  0  0  0  0  0
   32.0018  -23.0909   39.0083 Cl  0  0  0  0  0  0  0  0  0  0  0  0
   34.1374  -21.4934   38.6268 C   0  0  0  0  0  0  0  0  0  0  0  0
   34.7740  -20.6236   37.8707 N   0  0  0  0  0  0  0  0  0  0  0  0
   35.2127  -19.1914   35.9906 N   0  0  0  0  0  0  0  0  0  0  0  0
   35.6670  -19.5469   35.0856 H   0  0  0  0  0  0  0  0  0  0  0  0
   34.5753  -16.8830   36.0555 C   0  0  0  0  0  0  0  0  0  0  0  0
   34.7764  -15.5619   36.3718 C   0  0  0  0  0  0  0  0  0  0  0  0
   35.9157  -15.1510   37.0008 C   0  0  0  0  0  0  0  0  0  0  0  0
   36.8557  -16.0933   37.3091 C   0  0  0  0  0  0  0  0  0  0  0  0
   36.6423  -17.4439   36.9818 C   0  0  0  0  0  0  0  0  0  0  0  0
   35.5089  -17.8851   36.3508 C   0  0  0  0  0  0  0  0  0  0  0  0
   36.1571  -13.7274   37.3537 C   0  0  0  0  0  0  0  0  0  0  0  0
   35.5314  -12.7858   36.3308 C   0  0  0  0  0  0  0  0  0  0  0  0
   37.6527  -13.4407   37.3710 C   0  0  0  0  0  0  0  0  0  0  0  0
   33.2870  -17.5469   34.0721 C   0  0  0  0  0  0  0  0  0  0  0  0
   33.3982  -17.2067   35.4221 O   0  0  0  0  0  0  0  0  0  0  0  0
   34.6059  -21.9480   39.8570 N   0  0  0  0  0  0  0  0  0  0  0  0
   33.8898  -22.5570   40.4172 H   0  0  0  0  0  0  0  0  0  0  0  0
   35.8151  -21.7848   40.5309 C   0  0  0  0  0  0  0  0  0  0  0  0
   36.9941  -22.2314   40.0146 C   0  0  0  0  0  0  0  0  0  0  0  0
   38.2321  -22.0946   40.6464 C   0  0  0  0  0  0  0  0  0  0  0  0
   38.2790  -21.4763   41.8582 C   0  0  0  0  0  0  0  0  0  0  0  0
   37.1192  -21.0101   42.4179 C   0  0  0  0  0  0  0  0  0  0  0  0
   35.9013  -21.1536   41.7794 C   0  0  0  0  0  0  0  0  0  0  0  0
   34.4721  -20.5520   42.5181 S   0  0  0  0  0  0  0  0  0  0  0  0
   34.7190  -19.5177   43.5843 O   0  0  0  0  0  0  0  0  0  0  0  0
   33.5840  -19.9181   41.4740 O   0  0  0  0  0  0  0  0  0  0  0  0
   33.4924  -21.8172   43.2843 C   0  0  0  0  0  0  0  0  0  0  0  0
   32.1816  -22.0417   42.5773 C   0  0  0  0  0  0  0  0  0  0  0  0
   34.2558  -23.0714   43.5880 C   0  0  0  0  0  0  0  0  0  0  0  0
 19 20  1  0  0  0
 20 10  1  0  0  0
 10 11  2  0  0  0
 11 12  1  0  0  0
 12 13  2  0  0  0
 13 14  1  0  0  0
 14 15  2  0  0  0
 15  8  1  0  0  0
  8  1  1  0  0  0
  1  2  2  0  0  0
  2  3  1  0  0  0
  3  4  2  0  0  0
  4  5  1  0  0  0
  4  6  1  0  0  0
  6 21  1  0  0  0
 21 23  1  0  0  0
 23 24  2  0  0  0
 24 25  1  0  0  0
 25 26  2  0  0  0
 26 27  1  0  0  0
 27 28  2  0  0  0
 28 29  1  0  0  0
 29 30  2  0  0  0
 29 31  2  0  0  0
 29 32  1  0  0  0
 32 33  1  0  0  0
 32 34  1  0  0  0
  6  7  2  0  0  0
 12 16  1  0  0  0
 16 17  1  0  0  0
 16 18  1  0  0  0
 15 10  1  0  0  0
  7  1  1  0  0  0
 28 23  1  0  0  0
  8  9  1  0  0  0
 21 22  1  0  0  0
M  END
> <minimizedAffinity>
-6.08649

> <CNNscore>
0.2346043885

> <CNNaffinity>
5.7776165009

> <CNN_VS>
1.3554542065

> <CNNaffinity_variance>
0.1215821281

$$$$
[H]c1nc(N([H])c2c([H])c([H])c(C([H])(C([H])([H])[H])C([H])([H])[H])c([H])c2OC([H])([H])[H])nc(N([H])c2c([H])c([H])c([H])c([H])c2S(=O)(=O)C([H])(C([H])([H])[H])C([H])([H])[H])c1Cl


 34 36  0  0  0  0  0  0  0  0999 V2000
   34.4293  -20.1228   36.7513 C   0  0  0  0  0  0  0  0  0  0  0  0
   33.3141  -20.6955   36.2956 N   0  0  0  0  0  0  0  0  0  0  0  0
   32.6019  -21.5795   37.0037 C   0  0  0  0  0  0  0  0  0  0  0  0
   33.0127  -21.9301   38.2546 C   0  0  0  0  0  0  0  0  0  0  0  0
   32.1268  -23.0637   39.2013 Cl  0  0  0  0  0  0  0  0  0  0  0  0
   34.1783  -21.3650   38.7957 C   0  0  0  0  0  0  0  0  0  0  0  0
   34.7945  -20.5092   38.0075 N   0  0  0  0  0  0  0  0  0  0  0  0
   35.2290  -19.1801   36.0522 N   0  0  0  0  0  0  0  0  0  0  0  0
   35.6603  -19.5371   35.1367 H   0  0  0  0  0  0  0  0  0  0  0  0
   34.5896  -16.8714   36.0828 C   0  0  0  0  0  0  0  0  0  0  0  0
   34.7885  -15.5460   36.3816 C   0  0  0  0  0  0  0  0  0  0  0  0
   35.9251  -15.1255   37.0092 C   0  0  0  0  0  0  0  0  0  0  0  0
   36.8646  -16.0627   37.3340 C   0  0  0  0  0  0  0  0  0  0  0  0
   36.6535  -17.4179   37.0246 C   0  0  0  0  0  0  0  0  0  0  0  0
   35.5228  -17.8687   36.3955 C   0  0  0  0  0  0  0  0  0  0  0  0
   36.1641  -13.6970   37.3434 C   0  0  0  0  0  0  0  0  0  0  0  0
   35.5394  -12.7700   36.3066 C   0  0  0  0  0  0  0  0  0  0  0  0
   37.6593  -13.4082   37.3598 C   0  0  0  0  0  0  0  0  0  0  0  0
   33.3064  -17.5442   34.0991 C   0  0  0  0  0  0  0  0  0  0  0  0
   33.4151  -17.2049   35.4495 O   0  0  0  0  0  0  0  0  0  0  0  0
   34.6188  -21.7071   40.0719 N   0  0  0  0  0  0  0  0  0  0  0  0
   34.8589  -22.7672   40.1988 H   0  0  0  0  0  0  0  0  0  0  0  0
   34.8194  -20.9677   41.2363 C   0  0  0  0  0  0  0  0  0  0  0  0
   33.8313  -20.2084   41.7873 C   0  0  0  0  0  0  0  0  0  0  0  0
   33.9780  -19.4493   42.9503 C   0  0  0  0  0  0  0  0  0  0  0  0
   35.1817  -19.4593   43.5861 C   0  0  0  0  0  0  0  0  0  0  0  0
   36.2058  -20.2080   43.0699 C   0  0  0  0  0  0  0  0  0  0  0  0
   36.0445  -20.9541   41.9172 C   0  0  0  0  0  0  0  0  0  0  0  0
   37.3562  -21.8797   41.3068 S   0  0  0  0  0  0  0  0  0  0  0  0
   37.0810  -23.3580   41.2256 O   0  0  0  0  0  0  0  0  0  0  0  0
   37.7096  -21.4112   39.9153 O   0  0  0  0  0  0  0  0  0  0  0  0
   38.8394  -21.7123   42.2660 C   0  0  0  0  0  0  0  0  0  0  0  0
   39.3720  -23.0376   42.7439 C   0  0  0  0  0  0  0  0  0  0  0  0
   39.8680  -20.8211   41.6370 C   0  0  0  0  0  0  0  0  0  0  0  0
 19 20  1  0  0  0
 20 10  1  0  0  0
 10 11  2  0  0  0
 11 12  1  0  0  0
 12 13  2  0  0  0
 13 14  1  0  0  0
 14 15  2  0  0  0
 15  8  1  0  0  0
  8  1  1  0  0  0
  1  2  2  0  0  0
  2  3  1  0  0  0
  3  4  2  0  0  0
  4  5  1  0  0  0
  4  6  1  0  0  0
  6 21  1  0  0  0
 21 23  1  0  0  0
 23 24  2  0  0  0
 24 25  1  0  0  0
 25 26  2  0  0  0
 26 27  1  0  0  0
 27 28  2  0  0  0
 28 29  1  0  0  0
 29 30  2  0  0  0
 29 31  2  0  0  0
 29 32  1  0  0  0
 32 33  1  0  0  0
 32 34  1  0  0  0
  6  7  2  0  0  0
 12 16  1  0  0  0
 16 17  1  0  0  0
 16 18  1  0  0  0
 15 10  1  0  0  0
  7  1  1  0  0  0
 28 23  1  0  0  0
  8  9  1  0  0  0
 21 22  1  0  0  0
M  END
> <minimizedAffinity>
-6.09895

> <CNNscore>
0.2089972198

> <CNNaffinity>
5.6588315964

> <CNN_VS>
1.1826801300

> <CNNaffinity_variance>
0.2750363350

$$$$
[H]c1nc(N([H])c2c([H])c([H])c(C([H])(C([H])([H])[H])C([H])([H])[H])c([H])c2OC([H])([H])[H])nc(N([H])c2c([H])c([H])c([H])c([H])c2S(=O)(=O)C([H])(C([H])([H])[H])C([H])([H])[H])c1Cl


 34 36  0  0  0  0  0  0  0  0999 V2000
   33.9737  -14.5466   36.0401 C   0  0  0  0  0  0  0  0  0  0  0  0
   34.8805  -13.5696   35.9891 N   0  0  0  0  0  0  0  0  0  0  0  0
   34.8016  -12.4569   36.7280 C   0  0  0  0  0  0  0  0  0  0  0  0
   33.7544  -12.2872   37.5829 C   0  0  0  0  0  0  0  0  0  0  0  0
   33.6129  -10.8712   38.5529 Cl  0  0  0  0  0  0  0  0  0  0  0  0
   32.7640  -13.2768   37.6863 C   0  0  0  0  0  0  0  0  0  0  0  0
   32.9478  -14.3252   36.9115 N   0  0  0  0  0  0  0  0  0  0  0  0
   33.9990  -15.7489   35.2846 N   0  0  0  0  0  0  0  0  0  0  0  0
   34.1250  -15.6207   34.2266 H   0  0  0  0  0  0  0  0  0  0  0  0
   34.9642  -17.6257   36.4184 C   0  0  0  0  0  0  0  0  0  0  0  0
   34.9459  -18.9114   36.9004 C   0  0  0  0  0  0  0  0  0  0  0  0
   33.8550  -19.7141   36.7325 C   0  0  0  0  0  0  0  0  0  0  0  0
   32.7760  -19.2022   36.0689 C   0  0  0  0  0  0  0  0  0  0  0  0
   32.8025  -17.8848   35.5784 C   0  0  0  0  0  0  0  0  0  0  0  0
   33.8832  -17.0567   35.7322 C   0  0  0  0  0  0  0  0  0  0  0  0
   33.8105  -21.1088   37.2446 C   0  0  0  0  0  0  0  0  0  0  0  0
   35.2089  -21.6377   37.5434 C   0  0  0  0  0  0  0  0  0  0  0  0
   33.1972  -22.0294   36.1979 C   0  0  0  0  0  0  0  0  0  0  0  0
   37.4040  -17.4014   36.5942 C   0  0  0  0  0  0  0  0  0  0  0  0
   36.1054  -16.8889   36.6330 O   0  0  0  0  0  0  0  0  0  0  0  0
   31.6841  -13.1268   38.5528 N   0  0  0  0  0  0  0  0  0  0  0  0
   31.7512  -13.7238   39.4675 H   0  0  0  0  0  0  0  0  0  0  0  0
   30.5196  -12.3629   38.4943 C   0  0  0  0  0  0  0  0  0  0  0  0
   30.2037  -11.6127   37.4017 C   0  0  0  0  0  0  0  0  0  0  0  0
   29.0524  -10.8302   37.2904 C   0  0  0  0  0  0  0  0  0  0  0  0
   28.1791  -10.8059   38.3344 C   0  0  0  0  0  0  0  0  0  0  0  0
   28.4536  -11.5441   39.4549 C   0  0  0  0  0  0  0  0  0  0  0  0
   29.5982  -12.3138   39.5494 C   0  0  0  0  0  0  0  0  0  0  0  0
   29.9010  -13.2251   40.9734 S   0  0  0  0  0  0  0  0  0  0  0  0
   31.3252  -13.1554   41.4574 O   0  0  0  0  0  0  0  0  0  0  0  0
   29.0202  -12.7293   42.0955 O   0  0  0  0  0  0  0  0  0  0  0  0
   29.5315  -14.9511   40.7936 C   0  0  0  0  0  0  0  0  0  0  0  0
   29.4217  -15.6602   42.1178 C   0  0  0  0  0  0  0  0  0  0  0  0
   28.4054  -15.2319   39.8445 C   0  0  0  0  0  0  0  0  0  0  0  0
 19 20  1  0  0  0
 20 10  1  0  0  0
 10 11  2  0  0  0
 11 12  1  0  0  0
 12 13  2  0  0  0
 13 14  1  0  0  0
 14 15  2  0  0  0
 15  8  1  0  0  0
  8  1  1  0  0  0
  1  2  2  0  0  0
  2  3  1  0  0  0
  3  4  2  0  0  0
  4  5  1  0  0  0
  4  6  1  0  0  0
  6 21  1  0  0  0
 21 23  1  0  0  0
 23 24  2  0  0  0
 24 25  1  0  0  0
 25 26  2  0  0  0
 26 27  1  0  0  0
 27 28  2  0  0  0
 28 29  1  0  0  0
 29 30  2  0  0  0
 29 31  2  0  0  0
 29 32  1  0  0  0
 32 33  1  0  0  0
 32 34  1  0  0  0
  6  7  2  0  0  0
 12 16  1  0  0  0
 16 17  1  0  0  0
 16 18  1  0  0  0
 15 10  1  0  0  0
  7  1  1  0  0  0
 28 23  1  0  0  0
  8  9  1  0  0  0
 21 22  1  0  0  0
M  END
> <minimizedAffinity>
-6.43518

> <CNNscore>
0.1997300833

> <CNNaffinity>
6.3892960548

> <CNN_VS>
1.2761346102

> <CNNaffinity_variance>
0.1727697104

$$$$
[H]c1nc(N([H])c2c([H])c([H])c(N3C([H])([H])C([H])([H])C([H])(C([H])([H])[H])C([H])([H])C3([H])[H])c([H])c2OC([H])([H])[H])nc(N([H])c2c([H])c([H])c([H])c([H])c2S(=O)(=O)C([H])(C([H])([H])[H])C([H])([H])[H])c1Cl


 38 41  0  0  0  0  0  0  0  0999 V2000
   31.9729  -18.8054   35.3451 C   0  0  0  0  0  0  0  0  0  0  0  0
   30.7956  -18.6712   34.7385 N   0  0  0  0  0  0  0  0  0  0  0  0
   29.8089  -19.5633   34.8985 C   0  0  0  0  0  0  0  0  0  0  0  0
   29.9511  -20.6676   35.6958 C   0  0  0  0  0  0  0  0  0  0  0  0
   28.6880  -21.8205   35.9154 Cl  0  0  0  0  0  0  0  0  0  0  0  0
   31.1743  -20.8435   36.3501 C   0  0  0  0  0  0  0  0  0  0  0  0
   32.0890  -19.9045   36.1274 N   0  0  0  0  0  0  0  0  0  0  0  0
   33.0513  -17.9006   35.2167 N   0  0  0  0  0  0  0  0  0  0  0  0
   32.7241  -16.8523   35.2657 H   0  0  0  0  0  0  0  0  0  0  0  0
   35.2910  -17.3058   35.7189 C   0  0  0  0  0  0  0  0  0  0  0  0
   36.6324  -17.5168   35.5900 C   0  0  0  0  0  0  0  0  0  0  0  0
   37.1729  -18.5321   34.8306 C   0  0  0  0  0  0  0  0  0  0  0  0
   36.3153  -19.3750   34.1695 C   0  0  0  0  0  0  0  0  0  0  0  0
   34.9192  -19.1665   34.2953 C   0  0  0  0  0  0  0  0  0  0  0  0
   34.3943  -18.1623   35.0466 C   0  0  0  0  0  0  0  0  0  0  0  0
   38.6036  -18.6948   34.7410 N   0  0  0  0  0  0  0  0  0  0  0  0
   39.2201  -18.4427   33.4576 C   0  0  0  0  0  0  0  0  0  0  0  0
   40.6747  -18.7485   33.4074 C   0  0  0  0  0  0  0  0  0  0  0  0
   41.3355  -18.4931   34.7429 C   0  0  0  0  0  0  0  0  0  0  0  0
   42.7987  -18.7781   34.6432 C   0  0  0  0  0  0  0  0  0  0  0  0
   40.7256  -19.4502   35.7381 C   0  0  0  0  0  0  0  0  0  0  0  0
   39.2932  -19.0920   35.9297 C   0  0  0  0  0  0  0  0  0  0  0  0
   35.2627  -14.9250   36.3135 C   0  0  0  0  0  0  0  0  0  0  0  0
   34.8100  -16.2479   36.5120 O   0  0  0  0  0  0  0  0  0  0  0  0
   31.4129  -21.9678   37.1576 N   0  0  0  0  0  0  0  0  0  0  0  0
   31.6727  -21.7048   38.1596 H   0  0  0  0  0  0  0  0  0  0  0  0
   31.3712  -23.3094   36.7475 C   0  0  0  0  0  0  0  0  0  0  0  0
   31.7953  -23.7698   35.5084 C   0  0  0  0  0  0  0  0  0  0  0  0
   31.8434  -25.1142   35.1761 C   0  0  0  0  0  0  0  0  0  0  0  0
   31.4595  -26.0267   36.1031 C   0  0  0  0  0  0  0  0  0  0  0  0
   31.0413  -25.5879   37.3202 C   0  0  0  0  0  0  0  0  0  0  0  0
   30.9669  -24.2594   37.7170 C   0  0  0  0  0  0  0  0  0  0  0  0
   30.3193  -23.8818   39.2563 S   0  0  0  0  0  0  0  0  0  0  0  0
   30.6399  -25.0533   40.1967 O   0  0  0  0  0  0  0  0  0  0  0  0
   31.0343  -22.7537   39.9606 O   0  0  0  0  0  0  0  0  0  0  0  0
   28.5795  -23.7360   39.3638 C   0  0  0  0  0  0  0  0  0  0  0  0
   27.9585  -24.4742   38.1845 C   0  0  0  0  0  0  0  0  0  0  0  0
   27.9873  -22.4062   39.5668 C   0  0  0  0  0  0  0  0  0  0  0  0
 23 24  1  0  0  0
 24 10  1  0  0  0
 10 11  2  0  0  0
 11 12  1  0  0  0
 12 13  2  0  0  0
 13 14  1  0  0  0
 14 15  2  0  0  0
 15  8  1  0  0  0
  8  1  1  0  0  0
  1  2  2  0  0  0
  2  3  1  0  0  0
  3  4  2  0  0  0
  4  5  1  0  0  0
  4  6  1  0  0  0
  6 25  1  0  0  0
 25 27  1  0  0  0
 27 28  2  0  0  0
 28 29  1  0  0  0
 29 30  2  0  0  0
 30 31  1  0  0  0
 31 32  2  0  0  0
 32 33  1  0  0  0
 33 34  2  0  0  0
 33 35  2  0  0  0
 33 36  1  0  0  0
 36 37  1  0  0  0
 36 38  1  0  0  0
  6  7  2  0  0  0
 12 16  1  0  0  0
 16 17  1  0  0  0
 17 18  1  0  0  0
 18 19  1  0  0  0
 19 20  1  0  0  0
 19 21  1  0  0  0
 21 22  1  0  0  0
 15 10  1  0  0  0
  7  1  1  0  0  0
 22 16  1  0  0  0
 32 27  1  0  0  0
  8  9  1  0  0  0
 25 26  1  0  0  0
M  END
> <minimizedAffinity>
-5.98223

> <CNNscore>
0.3852170408

> <CNNaffinity>
6.3614873886

> <CNN_VS>
2.4505534172

> <CNNaffinity_variance>
0.3344811499

$$$$
[H]c1nc(N([H])c2c([H])c([H])c(N3C([H])([H])C([H])([H])C([H])(C([H])([H])[H])C([H])([H])C3([H])[H])c([H])c2OC([H])([H])[H])nc(N([H])c2c([H])c([H])c([H])c([H])c2S(=O)(=O)C([H])(C([H])([H])[H])C([H])([H])[H])c1Cl


 38 41  0  0  0  0  0  0  0  0999 V2000
   31.9740  -18.8779   35.1947 C   0  0  0  0  0  0  0  0  0  0  0  0
   30.7609  -18.8201   34.6494 N   0  0  0  0  0  0  0  0  0  0  0  0
   29.8041  -19.7082   34.9508 C   0  0  0  0  0  0  0  0  0  0  0  0
   30.0155  -20.7296   35.8383 C   0  0  0  0  0  0  0  0  0  0  0  0
   28.7918  -21.8759   36.2399 Cl  0  0  0  0  0  0  0  0  0  0  0  0
   31.2779  -20.8236   36.4321 C   0  0  0  0  0  0  0  0  0  0  0  0
   32.1582  -19.8959   36.0682 N   0  0  0  0  0  0  0  0  0  0  0  0
   33.0238  -17.9727   34.9179 N   0  0  0  0  0  0  0  0  0  0  0  0
   32.6590  -16.9490   34.7527 H   0  0  0  0  0  0  0  0  0  0  0  0
   35.2070  -17.4082   35.6507 C   0  0  0  0  0  0  0  0  0  0  0  0
   36.5574  -17.5969   35.6131 C   0  0  0  0  0  0  0  0  0  0  0  0
   37.1719  -18.5367   34.8139 C   0  0  0  0  0  0  0  0  0  0  0  0
   36.3825  -19.3240   34.0138 C   0  0  0  0  0  0  0  0  0  0  0  0
   34.9780  -19.1379   34.0436 C   0  0  0  0  0  0  0  0  0  0  0  0
   34.3798  -18.2083   34.8351 C   0  0  0  0  0  0  0  0  0  0  0  0
   38.6074  -18.6801   34.8268 N   0  0  0  0  0  0  0  0  0  0  0  0
   39.2378  -18.9208   36.1056 C   0  0  0  0  0  0  0  0  0  0  0  0
   40.7244  -18.9349   36.0614 C   0  0  0  0  0  0  0  0  0  0  0  0
   41.2290  -19.4698   34.7406 C   0  0  0  0  0  0  0  0  0  0  0  0
   42.7227  -19.5005   34.7476 C   0  0  0  0  0  0  0  0  0  0  0  0
   40.7726  -18.5156   33.6637 C   0  0  0  0  0  0  0  0  0  0  0  0
   39.2875  -18.5724   33.5729 C   0  0  0  0  0  0  0  0  0  0  0  0
   34.8015  -15.0533   36.2095 C   0  0  0  0  0  0  0  0  0  0  0  0
   34.6486  -16.4285   36.4919 O   0  0  0  0  0  0  0  0  0  0  0  0
   31.5865  -21.8624   37.3259 N   0  0  0  0  0  0  0  0  0  0  0  0
   31.4308  -21.5853   38.3455 H   0  0  0  0  0  0  0  0  0  0  0  0
   32.0850  -23.1298   36.9867 C   0  0  0  0  0  0  0  0  0  0  0  0
   31.5626  -23.9430   35.9901 C   0  0  0  0  0  0  0  0  0  0  0  0
   32.1459  -25.1399   35.6063 C   0  0  0  0  0  0  0  0  0  0  0  0
   33.2815  -25.5390   36.2311 C   0  0  0  0  0  0  0  0  0  0  0  0
   33.8022  -24.7514   37.2096 C   0  0  0  0  0  0  0  0  0  0  0  0
   33.2692  -23.5449   37.6432 C   0  0  0  0  0  0  0  0  0  0  0  0
   34.0023  -22.7323   38.9600 S   0  0  0  0  0  0  0  0  0  0  0  0
   32.9038  -21.9483   39.6936 O   0  0  0  0  0  0  0  0  0  0  0  0
   34.4725  -23.6523   40.0611 O   0  0  0  0  0  0  0  0  0  0  0  0
   35.1863  -21.5062   38.5672 C   0  0  0  0  0  0  0  0  0  0  0  0
   34.9965  -20.3289   39.5156 C   0  0  0  0  0  0  0  0  0  0  0  0
   35.3334  -21.0802   37.1681 C   0  0  0  0  0  0  0  0  0  0  0  0
 23 24  1  0  0  0
 24 10  1  0  0  0
 10 11  2  0  0  0
 11 12  1  0  0  0
 12 13  2  0  0  0
 13 14  1  0  0  0
 14 15  2  0  0  0
 15  8  1  0  0  0
  8  1  1  0  0  0
  1  2  2  0  0  0
  2  3  1  0  0  0
  3  4  2  0  0  0
  4  5  1  0  0  0
  4  6  1  0  0  0
  6 25  1  0  0  0
 25 27  1  0  0  0
 27 28  2  0  0  0
 28 29  1  0  0  0
 29 30  2  0  0  0
 30 31  1  0  0  0
 31 32  2  0  0  0
 32 33  1  0  0  0
 33 34  2  0  0  0
 33 35  2  0  0  0
 33 36  1  0  0  0
 36 37  1  0  0  0
 36 38  1  0  0  0
  6  7  2  0  0  0
 12 16  1  0  0  0
 16 17  1  0  0  0
 17 18  1  0  0  0
 18 19  1  0  0  0
 19 20  1  0  0  0
 19 21  1  0  0  0
 21 22  1  0  0  0
 15 10  1  0  0  0
  7  1  1  0  0  0
 22 16  1  0  0  0
 32 27  1  0  0  0
  8  9  1  0  0  0
 25 26  1  0  0  0
M  END
> <minimizedAffinity>
-6.15144

> <CNNscore>
0.3623481989

> <CNNaffinity>
6.4869470596

> <CNN_VS>
2.3505334854

> <CNNaffinity_variance>
0.4725039601

$$$$
[H]c1nc(N([H])c2c([H])c([H])c(N3C([H])([H])C([H])([H])C([H])(C([H])([H])[H])C([H])([H])C3([H])[H])c([H])c2OC([H])([H])[H])nc(N([H])c2c([H])c([H])c([H])c([H])c2S(=O)(=O)C([H])(C([H])([H])[H])C([H])([H])[H])c1Cl


 38 41  0  0  0  0  0  0  0  0999 V2000
   33.7304  -14.4046   36.5897 C   0  0  0  0  0  0  0  0  0  0  0  0
   34.5331  -13.4752   36.0757 N   0  0  0  0  0  0  0  0  0  0  0  0
   34.4849  -12.1968   36.4738 C   0  0  0  0  0  0  0  0  0  0  0  0
   33.6071  -11.7682   37.4336 C   0  0  0  0  0  0  0  0  0  0  0  0
   33.5382  -10.1276   37.9595 Cl  0  0  0  0  0  0  0  0  0  0  0  0
   32.7471  -12.7156   37.9974 C   0  0  0  0  0  0  0  0  0  0  0  0
   32.8721  -13.9563   37.5361 N   0  0  0  0  0  0  0  0  0  0  0  0
   33.7327  -15.7669   36.2122 N   0  0  0  0  0  0  0  0  0  0  0  0
   32.7232  -16.2019   36.2144 H   0  0  0  0  0  0  0  0  0  0  0  0
   35.9421  -16.4918   36.6759 C   0  0  0  0  0  0  0  0  0  0  0  0
   37.0240  -17.2671   36.3777 C   0  0  0  0  0  0  0  0  0  0  0  0
   37.0641  -18.1384   35.3104 C   0  0  0  0  0  0  0  0  0  0  0  0
   35.9564  -18.2300   34.5057 C   0  0  0  0  0  0  0  0  0  0  0  0
   34.8258  -17.4297   34.8048 C   0  0  0  0  0  0  0  0  0  0  0  0
   34.7945  -16.5727   35.8598 C   0  0  0  0  0  0  0  0  0  0  0  0
   38.2445  -18.9281   35.0563 N   0  0  0  0  0  0  0  0  0  0  0  0
   39.2085  -19.0427   36.1278 C   0  0  0  0  0  0  0  0  0  0  0  0
   40.4536  -19.7659   35.7554 C   0  0  0  0  0  0  0  0  0  0  0  0
   40.1774  -20.8414   34.7295 C   0  0  0  0  0  0  0  0  0  0  0  0
   41.4433  -21.5665   34.4072 C   0  0  0  0  0  0  0  0  0  0  0  0
   39.6841  -20.1554   33.4787 C   0  0  0  0  0  0  0  0  0  0  0  0
   38.3626  -19.5321   33.7649 C   0  0  0  0  0  0  0  0  0  0  0  0
   37.0760  -14.7729   38.0109 C   0  0  0  0  0  0  0  0  0  0  0  0
   35.9722  -15.6238   37.7827 O   0  0  0  0  0  0  0  0  0  0  0  0
   31.7937  -12.3505   38.9622 N   0  0  0  0  0  0  0  0  0  0  0  0
   32.1788  -12.3980   39.9571 H   0  0  0  0  0  0  0  0  0  0  0  0
   30.4588  -11.9927   38.7174 C   0  0  0  0  0  0  0  0  0  0  0  0
   30.0349  -11.2009   37.6588 C   0  0  0  0  0  0  0  0  0  0  0  0
   28.6990  -10.9577   37.3826 C   0  0  0  0  0  0  0  0  0  0  0  0
   27.7578  -11.5188   38.1818 C   0  0  0  0  0  0  0  0  0  0  0  0
   28.1607  -12.2955   39.2225 C   0  0  0  0  0  0  0  0  0  0  0  0
   29.4787  -12.5778   39.5557 C   0  0  0  0  0  0  0  0  0  0  0  0
   29.8069  -13.4951   40.9637 S   0  0  0  0  0  0  0  0  0  0  0  0
   30.1227  -14.9317   40.5206 O   0  0  0  0  0  0  0  0  0  0  0  0
   31.1000  -13.1228   41.6486 O   0  0  0  0  0  0  0  0  0  0  0  0
   28.4891  -13.6972   42.0960 C   0  0  0  0  0  0  0  0  0  0  0  0
   29.0539  -13.6456   43.5100 C   0  0  0  0  0  0  0  0  0  0  0  0
   27.5529  -14.8146   41.9074 C   0  0  0  0  0  0  0  0  0  0  0  0
 23 24  1  0  0  0
 24 10  1  0  0  0
 10 11  2  0  0  0
 11 12  1  0  0  0
 12 13  2  0  0  0
 13 14  1  0  0  0
 14 15  2  0  0  0
 15  8  1  0  0  0
  8  1  1  0  0  0
  1  2  2  0  0  0
  2  3  1  0  0  0
  3  4  2  0  0  0
  4  5  1  0  0  0
  4  6  1  0  0  0
  6 25  1  0  0  0
 25 27  1  0  0  0
 27 28  2  0  0  0
 28 29  1  0  0  0
 29 30  2  0  0  0
 30 31  1  0  0  0
 31 32  2  0  0  0
 32 33  1  0  0  0
 33 34  2  0  0  0
 33 35  2  0  0  0
 33 36  1  0  0  0
 36 37  1  0  0  0
 36 38  1  0  0  0
  6  7  2  0  0  0
 12 16  1  0  0  0
 16 17  1  0  0  0
 17 18  1  0  0  0
 18 19  1  0  0  0
 19 20  1  0  0  0
 19 21  1  0  0  0
 21 22  1  0  0  0
 15 10  1  0  0  0
  7  1  1  0  0  0
 22 16  1  0  0  0
 32 27  1  0  0  0
  8  9  1  0  0  0
 25 26  1  0  0  0
M  END
> <minimizedAffinity>
-8.45977

> <CNNscore>
0.2810915411

> <CNNaffinity>
6.8386473656

> <CNN_VS>
1.9222859144

> <CNNaffinity_variance>
0.1150309294

$$$$
[H]c1nc(N([H])c2c([H])c([H])c(N3C([H])([H])C([H])([H])C([H])(C([H])([H])[H])C([H])([H])C3([H])[H])c([H])c2OC([H])([H])[H])nc(N([H])c2c([H])c([H])c([H])c([H])c2S(=O)(=O)C([H])(C([H])([H])[H])C([H])([H])[H])c1Cl


 38 41  0  0  0  0  0  0  0  0999 V2000
   31.9174  -18.8352   35.2665 C   0  0  0  0  0  0  0  0  0  0  0  0
   30.6970  -18.6871   34.7556 N   0  0  0  0  0  0  0  0  0  0  0  0
   29.7263  -19.5867   34.9638 C   0  0  0  0  0  0  0  0  0  0  0  0
   29.9302  -20.7137   35.7149 C   0  0  0  0  0  0  0  0  0  0  0  0
   28.6887  -21.8767   35.9957 Cl  0  0  0  0  0  0  0  0  0  0  0  0
   31.1999  -20.9047   36.2684 C   0  0  0  0  0  0  0  0  0  0  0  0
   32.0939  -19.9566   36.0046 N   0  0  0  0  0  0  0  0  0  0  0  0
   32.9819  -17.9234   35.0831 N   0  0  0  0  0  0  0  0  0  0  0  0
   32.6340  -16.8821   35.0277 H   0  0  0  0  0  0  0  0  0  0  0  0
   35.1920  -17.2958   35.6690 C   0  0  0  0  0  0  0  0  0  0  0  0
   36.5399  -17.4925   35.5980 C   0  0  0  0  0  0  0  0  0  0  0  0
   37.1228  -18.5108   34.8749 C   0  0  0  0  0  0  0  0  0  0  0  0
   36.3027  -19.3722   34.1903 C   0  0  0  0  0  0  0  0  0  0  0  0
   34.9004  -19.1787   34.2559 C   0  0  0  0  0  0  0  0  0  0  0  0
   34.3336  -18.1714   34.9718 C   0  0  0  0  0  0  0  0  0  0  0  0
   38.5577  -18.6577   34.8462 N   0  0  0  0  0  0  0  0  0  0  0  0
   39.2261  -18.8832   36.1084 C   0  0  0  0  0  0  0  0  0  0  0  0
   40.7106  -18.9016   36.0194 C   0  0  0  0  0  0  0  0  0  0  0  0
   41.1738  -19.4549   34.6910 C   0  0  0  0  0  0  0  0  0  0  0  0
   42.6670  -19.4893   34.6532 C   0  0  0  0  0  0  0  0  0  0  0  0
   40.6869  -18.5138   33.6160 C   0  0  0  0  0  0  0  0  0  0  0  0
   39.1997  -18.5680   33.5710 C   0  0  0  0  0  0  0  0  0  0  0  0
   35.2948  -14.9688   36.4417 C   0  0  0  0  0  0  0  0  0  0  0  0
   34.6669  -16.2337   36.4277 O   0  0  0  0  0  0  0  0  0  0  0  0
   31.5006  -22.0516   37.0217 N   0  0  0  0  0  0  0  0  0  0  0  0
   30.6675  -22.3955   37.5946 H   0  0  0  0  0  0  0  0  0  0  0  0
   32.7444  -22.6981   37.0902 C   0  0  0  0  0  0  0  0  0  0  0  0
   33.8574  -22.2008   37.7545 C   0  0  0  0  0  0  0  0  0  0  0  0
   35.0364  -22.9149   37.8963 C   0  0  0  0  0  0  0  0  0  0  0  0
   35.1102  -24.1596   37.3628 C   0  0  0  0  0  0  0  0  0  0  0  0
   34.0269  -24.6573   36.7089 C   0  0  0  0  0  0  0  0  0  0  0  0
   32.8190  -23.9965   36.5294 C   0  0  0  0  0  0  0  0  0  0  0  0
   31.5932  -24.7359   35.5901 S   0  0  0  0  0  0  0  0  0  0  0  0
   31.1963  -23.7490   34.4819 O   0  0  0  0  0  0  0  0  0  0  0  0
   32.0763  -25.9043   34.7646 O   0  0  0  0  0  0  0  0  0  0  0  0
   30.0790  -25.0737   36.3979 C   0  0  0  0  0  0  0  0  0  0  0  0
   30.3828  -25.7033   37.7517 C   0  0  0  0  0  0  0  0  0  0  0  0
   29.0276  -25.7961   35.6676 C   0  0  0  0  0  0  0  0  0  0  0  0
 23 24  1  0  0  0
 24 10  1  0  0  0
 10 11  2  0  0  0
 11 12  1  0  0  0
 12 13  2  0  0  0
 13 14  1  0  0  0
 14 15  2  0  0  0
 15  8  1  0  0  0
  8  1  1  0  0  0
  1  2  2  0  0  0
  2  3  1  0  0  0
  3  4  2  0  0  0
  4  5  1  0  0  0
  4  6  1  0  0  0
  6 25  1  0  0  0
 25 27  1  0  0  0
 27 28  2  0  0  0
 28 29  1  0  0  0
 29 30  2  0  0  0
 30 31  1  0  0  0
 31 32  2  0  0  0
 32 33  1  0  0  0
 33 34  2  0  0  0
 33 35  2  0  0  0
 33 36  1  0  0  0
 36 37  1  0  0  0
 36 38  1  0  0  0
  6  7  2  0  0  0
 12 16  1  0  0  0
 16 17  1  0  0  0
 17 18  1  0  0  0
 18 19  1  0  0  0
 19 20  1  0  0  0
 19 21  1  0  0  0
 21 22  1  0  0  0
 15 10  1  0  0  0
  7  1  1  0  0  0
 22 16  1  0  0  0
 32 27  1  0  0  0
  8  9  1  0  0  0
 25 26  1  0  0  0
M  END
> <minimizedAffinity>
-6.09176

> <CNNscore>
0.2274470627

> <CNNaffinity>
6.3001632690

> <CNN_VS>
1.4329535961

> <CNNaffinity_variance>
0.3673604131

$$$$
[H]c1nc(N([H])c2c([H])c([H])c(N3C([H])([H])C([H])([H])C([H])(C([H])([H])[H])C([H])([H])C3([H])[H])c([H])c2OC([H])([H])[H])nc(N([H])c2c([H])c([H])c([H])c([H])c2S(=O)(=O)C([H])(C([H])([H])[H])C([H])([H])[H])c1Cl


 38 41  0  0  0  0  0  0  0  0999 V2000
   33.5748  -14.2655   36.7439 C   0  0  0  0  0  0  0  0  0  0  0  0
   34.3821  -13.3298   36.2489 N   0  0  0  0  0  0  0  0  0  0  0  0
   34.2954  -12.0466   36.6242 C   0  0  0  0  0  0  0  0  0  0  0  0
   33.3711  -11.6192   37.5400 C   0  0  0  0  0  0  0  0  0  0  0  0
   33.2521   -9.9723   38.0365 Cl  0  0  0  0  0  0  0  0  0  0  0  0
   32.5048  -12.5732   38.0826 C   0  0  0  0  0  0  0  0  0  0  0  0
   32.6703  -13.8183   37.6467 N   0  0  0  0  0  0  0  0  0  0  0  0
   33.6163  -15.6331   36.3885 N   0  0  0  0  0  0  0  0  0  0  0  0
   32.6326  -16.1162   36.4744 H   0  0  0  0  0  0  0  0  0  0  0  0
   35.8871  -16.2428   36.6948 C   0  0  0  0  0  0  0  0  0  0  0  0
   36.9805  -16.9706   36.3271 C   0  0  0  0  0  0  0  0  0  0  0  0
   36.9838  -17.8579   35.2725 C   0  0  0  0  0  0  0  0  0  0  0  0
   35.8250  -18.0170   34.5548 C   0  0  0  0  0  0  0  0  0  0  0  0
   34.6819  -17.2666   34.9267 C   0  0  0  0  0  0  0  0  0  0  0  0
   34.6872  -16.3933   35.9687 C   0  0  0  0  0  0  0  0  0  0  0  0
   38.1793  -18.5945   34.9414 N   0  0  0  0  0  0  0  0  0  0  0  0
   38.6521  -18.5121   33.5775 C   0  0  0  0  0  0  0  0  0  0  0  0
   39.8137  -19.3916   33.2788 C   0  0  0  0  0  0  0  0  0  0  0  0
   40.7054  -19.5526   34.4890 C   0  0  0  0  0  0  0  0  0  0  0  0
   41.8764  -20.4126   34.1405 C   0  0  0  0  0  0  0  0  0  0  0  0
   39.8965  -20.2504   35.5554 C   0  0  0  0  0  0  0  0  0  0  0  0
   38.7975  -19.3451   35.9906 C   0  0  0  0  0  0  0  0  0  0  0  0
   37.1301  -14.6129   38.0443 C   0  0  0  0  0  0  0  0  0  0  0  0
   35.9569  -15.3546   37.7837 O   0  0  0  0  0  0  0  0  0  0  0  0
   31.5058  -12.2106   39.0012 N   0  0  0  0  0  0  0  0  0  0  0  0
   31.6427  -11.2242   39.3871 H   0  0  0  0  0  0  0  0  0  0  0  0
   30.4444  -13.0189   39.4367 C   0  0  0  0  0  0  0  0  0  0  0  0
   30.5933  -14.2593   40.0422 C   0  0  0  0  0  0  0  0  0  0  0  0
   29.5301  -14.9817   40.5597 C   0  0  0  0  0  0  0  0  0  0  0  0
   28.2833  -14.4550   40.4732 C   0  0  0  0  0  0  0  0  0  0  0  0
   28.1246  -13.2412   39.8814 C   0  0  0  0  0  0  0  0  0  0  0  0
   29.1434  -12.4672   39.3420 C   0  0  0  0  0  0  0  0  0  0  0  0
   28.7489  -11.0054   38.5428 S   0  0  0  0  0  0  0  0  0  0  0  0
   29.5990  -10.9286   37.2656 O   0  0  0  0  0  0  0  0  0  0  0  0
   27.3582  -10.9857   37.9550 O   0  0  0  0  0  0  0  0  0  0  0  0
   29.1370   -9.5204   39.3817 C   0  0  0  0  0  0  0  0  0  0  0  0
   28.0566   -9.2565   40.4231 C   0  0  0  0  0  0  0  0  0  0  0  0
   29.4615   -8.3218   38.5953 C   0  0  0  0  0  0  0  0  0  0  0  0
 23 24  1  0  0  0
 24 10  1  0  0  0
 10 11  2  0  0  0
 11 12  1  0  0  0
 12 13  2  0  0  0
 13 14  1  0  0  0
 14 15  2  0  0  0
 15  8  1  0  0  0
  8  1  1  0  0  0
  1  2  2  0  0  0
  2  3  1  0  0  0
  3  4  2  0  0  0
  4  5  1  0  0  0
  4  6  1  0  0  0
  6 25  1  0  0  0
 25 27  1  0  0  0
 27 28  2  0  0  0
 28 29  1  0  0  0
 29 30  2  0  0  0
 30 31  1  0  0  0
 31 32  2  0  0  0
 32 33  1  0  0  0
 33 34  2  0  0  0
 33 35  2  0  0  0
 33 36  1  0  0  0
 36 37  1  0  0  0
 36 38  1  0  0  0
  6  7  2  0  0  0
 12 16  1  0  0  0
 16 17  1  0  0  0
 17 18  1  0  0  0
 18 19  1  0  0  0
 19 20  1  0  0  0
 19 21  1  0  0  0
 21 22  1  0  0  0
 15 10  1  0  0  0
  7  1  1  0  0  0
 22 16  1  0  0  0
 32 27  1  0  0  0
  8  9  1  0  0  0
 25 26  1  0  0  0
M  END
> <minimizedAffinity>
-7.46435

> <CNNscore>
0.2082399577

> <CNNaffinity>
6.8296647072

> <CNN_VS>
1.4222091436

> <CNNaffinity_variance>
0.0798638240

$$$$
[H]c1nc(N([H])c2c([H])c([H])c(N3C([H])([H])C([H])([H])C([H])(C([H])([H])[H])C([H])([H])C3([H])[H])c([H])c2OC([H])([H])[H])nc(N([H])c2c([H])c([H])c([H])c([H])c2S(=O)(=O)C([H])(C([H])([H])[H])C([H])([H])[H])c1Cl


 38 41  0  0  0  0  0  0  0  0999 V2000
   34.6319  -13.8977   36.5240 C   0  0  0  0  0  0  0  0  0  0  0  0
   35.3185  -12.7592   36.5903 N   0  0  0  0  0  0  0  0  0  0  0  0
   34.7583  -11.6156   37.0067 C   0  0  0  0  0  0  0  0  0  0  0  0
   33.4452  -11.5481   37.3897 C   0  0  0  0  0  0  0  0  0  0  0  0
   32.7128  -10.0848   37.9331 Cl  0  0  0  0  0  0  0  0  0  0  0  0
   32.6907  -12.7240   37.3337 C   0  0  0  0  0  0  0  0  0  0  0  0
   33.3366  -13.8052   36.9075 N   0  0  0  0  0  0  0  0  0  0  0  0
   35.1650  -15.1342   36.0938 N   0  0  0  0  0  0  0  0  0  0  0  0
   36.2322  -15.0626   35.8403 H   0  0  0  0  0  0  0  0  0  0  0  0
   35.2013  -17.4651   36.5269 C   0  0  0  0  0  0  0  0  0  0  0  0
   34.6291  -18.6994   36.4293 C   0  0  0  0  0  0  0  0  0  0  0  0
   33.4241  -18.9315   35.8019 C   0  0  0  0  0  0  0  0  0  0  0  0
   32.7657  -17.8635   35.2461 C   0  0  0  0  0  0  0  0  0  0  0  0
   33.3496  -16.5757   35.3406 C   0  0  0  0  0  0  0  0  0  0  0  0
   34.5389  -16.3555   35.9616 C   0  0  0  0  0  0  0  0  0  0  0  0
   32.8791  -20.2659   35.7376 N   0  0  0  0  0  0  0  0  0  0  0  0
   32.6117  -20.8099   34.4249 C   0  0  0  0  0  0  0  0  0  0  0  0
   31.9383  -22.1359   34.4383 C   0  0  0  0  0  0  0  0  0  0  0  0
   32.3605  -22.9537   35.6376 C   0  0  0  0  0  0  0  0  0  0  0  0
   31.6909  -24.2887   35.5975 C   0  0  0  0  0  0  0  0  0  0  0  0
   31.8948  -22.2188   36.8711 C   0  0  0  0  0  0  0  0  0  0  0  0
   32.6489  -20.9395   36.9784 C   0  0  0  0  0  0  0  0  0  0  0  0
   37.5401  -18.1248   36.8696 C   0  0  0  0  0  0  0  0  0  0  0  0
   36.4353  -17.3027   37.1829 O   0  0  0  0  0  0  0  0  0  0  0  0
   31.3283  -12.7318   37.6756 N   0  0  0  0  0  0  0  0  0  0  0  0
   30.6927  -12.5898   36.8292 H   0  0  0  0  0  0  0  0  0  0  0  0
   30.7966  -12.8657   38.9676 C   0  0  0  0  0  0  0  0  0  0  0  0
   31.2817  -13.7352   39.9350 C   0  0  0  0  0  0  0  0  0  0  0  0
   30.8042  -13.7636   41.2355 C   0  0  0  0  0  0  0  0  0  0  0  0
   29.8165  -12.9020   41.5839 C   0  0  0  0  0  0  0  0  0  0  0  0
   29.3325  -12.0461   40.6448 C   0  0  0  0  0  0  0  0  0  0  0  0
   29.7631  -11.9665   39.3272 C   0  0  0  0  0  0  0  0  0  0  0  0
   28.9698  -10.8962   38.2517 S   0  0  0  0  0  0  0  0  0  0  0  0
   29.4675   -9.4753   38.5570 O   0  0  0  0  0  0  0  0  0  0  0  0
   29.4039  -11.0418   36.8129 O   0  0  0  0  0  0  0  0  0  0  0  0
   27.2331  -10.7639   38.4120 C   0  0  0  0  0  0  0  0  0  0  0  0
   26.9240   -9.7478   39.5044 C   0  0  0  0  0  0  0  0  0  0  0  0
   26.4345  -11.9906   38.5460 C   0  0  0  0  0  0  0  0  0  0  0  0
 23 24  1  0  0  0
 24 10  1  0  0  0
 10 11  2  0  0  0
 11 12  1  0  0  0
 12 13  2  0  0  0
 13 14  1  0  0  0
 14 15  2  0  0  0
 15  8  1  0  0  0
  8  1  1  0  0  0
  1  2  2  0  0  0
  2  3  1  0  0  0
  3  4  2  0  0  0
  4  5  1  0  0  0
  4  6  1  0  0  0
  6 25  1  0  0  0
 25 27  1  0  0  0
 27 28  2  0  0  0
 28 29  1  0  0  0
 29 30  2  0  0  0
 30 31  1  0  0  0
 31 32  2  0  0  0
 32 33  1  0  0  0
 33 34  2  0  0  0
 33 35  2  0  0  0
 33 36  1  0  0  0
 36 37  1  0  0  0
 36 38  1  0  0  0
  6  7  2  0  0  0
 12 16  1  0  0  0
 16 17  1  0  0  0
 17 18  1  0  0  0
 18 19  1  0  0  0
 19 20  1  0  0  0
 19 21  1  0  0  0
 21 22  1  0  0  0
 15 10  1  0  0  0
  7  1  1  0  0  0
 22 16  1  0  0  0
 32 27  1  0  0  0
  8  9  1  0  0  0
 25 26  1  0  0  0
M  END
> <minimizedAffinity>
-6.81753

> <CNNscore>
0.2049273103

> <CNNaffinity>
6.6242094040

> <CNN_VS>
1.3574813604

> <CNNaffinity_variance>
0.0934959874

$$$$
[H]c1nc(N([H])c2c([H])c([H])c(N3C([H])([H])C([H])([H])C([H])(C([H])([H])[H])C([H])([H])C3([H])[H])c([H])c2OC([H])([H])[H])nc(N([H])c2c([H])c([H])c([H])c([H])c2S(=O)(=O)C([H])(C([H])([H])[H])C([H])([H])[H])c1Cl


 38 41  0  0  0  0  0  0  0  0999 V2000
   32.9330  -21.9885   36.0346 C   0  0  0  0  0  0  0  0  0  0  0  0
   32.0249  -22.8101   35.5126 N   0  0  0  0  0  0  0  0  0  0  0  0
   31.2886  -23.6302   36.2744 C   0  0  0  0  0  0  0  0  0  0  0  0
   31.4250  -23.6734   37.6364 C   0  0  0  0  0  0  0  0  0  0  0  0
   30.4803  -24.7194   38.6293 Cl  0  0  0  0  0  0  0  0  0  0  0  0
   32.3695  -22.8247   38.2219 C   0  0  0  0  0  0  0  0  0  0  0  0
   33.0493  -22.0498   37.3822 N   0  0  0  0  0  0  0  0  0  0  0  0
   33.7396  -21.1016   35.2856 N   0  0  0  0  0  0  0  0  0  0  0  0
   34.1358  -21.5683   34.3727 H   0  0  0  0  0  0  0  0  0  0  0  0
   33.2125  -18.8056   35.0161 C   0  0  0  0  0  0  0  0  0  0  0  0
   33.4882  -17.4897   35.2458 C   0  0  0  0  0  0  0  0  0  0  0  0
   34.5718  -17.0566   35.9792 C   0  0  0  0  0  0  0  0  0  0  0  0
   35.4177  -18.0001   36.5059 C   0  0  0  0  0  0  0  0  0  0  0  0
   35.1423  -19.3708   36.2744 C   0  0  0  0  0  0  0  0  0  0  0  0
   34.0709  -19.7895   35.5496 C   0  0  0  0  0  0  0  0  0  0  0  0
   34.8003  -15.6465   36.1815 N   0  0  0  0  0  0  0  0  0  0  0  0
   36.1601  -15.2252   36.4350 C   0  0  0  0  0  0  0  0  0  0  0  0
   36.3027  -13.7799   36.7555 C   0  0  0  0  0  0  0  0  0  0  0  0
   35.2682  -12.9518   36.0279 C   0  0  0  0  0  0  0  0  0  0  0  0
   35.4651  -11.5058   36.3478 C   0  0  0  0  0  0  0  0  0  0  0  0
   33.9118  -13.3766   36.5361 C   0  0  0  0  0  0  0  0  0  0  0  0
   33.6622  -14.7825   36.1144 C   0  0  0  0  0  0  0  0  0  0  0  0
   30.7915  -19.1555   34.8193 C   0  0  0  0  0  0  0  0  0  0  0  0
   32.0868  -19.1748   34.2571 O   0  0  0  0  0  0  0  0  0  0  0  0
   32.5954  -22.8333   39.6083 N   0  0  0  0  0  0  0  0  0  0  0  0
   31.8780  -22.2512   40.1439 H   0  0  0  0  0  0  0  0  0  0  0  0
   33.6484  -23.4792   40.2746 C   0  0  0  0  0  0  0  0  0  0  0  0
   34.1785  -24.7089   39.9083 C   0  0  0  0  0  0  0  0  0  0  0  0
   35.2897  -25.2668   40.5198 C   0  0  0  0  0  0  0  0  0  0  0  0
   35.8914  -24.5817   41.5237 C   0  0  0  0  0  0  0  0  0  0  0  0
   35.3809  -23.3766   41.8922 C   0  0  0  0  0  0  0  0  0  0  0  0
   34.2725  -22.7623   41.3246 C   0  0  0  0  0  0  0  0  0  0  0  0
   33.7063  -21.2865   41.9826 S   0  0  0  0  0  0  0  0  0  0  0  0
   33.8018  -20.2188   40.8823 O   0  0  0  0  0  0  0  0  0  0  0  0
   32.2223  -21.2702   42.2604 O   0  0  0  0  0  0  0  0  0  0  0  0
   34.6363  -20.6029   43.2969 C   0  0  0  0  0  0  0  0  0  0  0  0
   33.9035  -20.8803   44.6035 C   0  0  0  0  0  0  0  0  0  0  0  0
   35.0942  -19.2098   43.1964 C   0  0  0  0  0  0  0  0  0  0  0  0
 23 24  1  0  0  0
 24 10  1  0  0  0
 10 11  2  0  0  0
 11 12  1  0  0  0
 12 13  2  0  0  0
 13 14  1  0  0  0
 14 15  2  0  0  0
 15  8  1  0  0  0
  8  1  1  0  0  0
  1  2  2  0  0  0
  2  3  1  0  0  0
  3  4  2  0  0  0
  4  5  1  0  0  0
  4  6  1  0  0  0
  6 25  1  0  0  0
 25 27  1  0  0  0
 27 28  2  0  0  0
 28 29  1  0  0  0
 29 30  2  0  0  0
 30 31  1  0  0  0
 31 32  2  0  0  0
 32 33  1  0  0  0
 33 34  2  0  0  0
 33 35  2  0  0  0
 33 36  1  0  0  0
 36 37  1  0  0  0
 36 38  1  0  0  0
  6  7  2  0  0  0
 12 16  1  0  0  0
 16 17  1  0  0  0
 17 18  1  0  0  0
 18 19  1  0  0  0
 19 20  1  0  0  0
 19 21  1  0  0  0
 21 22  1  0  0  0
 15 10  1  0  0  0
  7  1  1  0  0  0
 22 16  1  0  0  0
 32 27  1  0  0  0
  8  9  1  0  0  0
 25 26  1  0  0  0
M  END
> <minimizedAffinity>
-6.20411

> <CNNscore>
0.1828716546

> <CNNaffinity>
6.0298204422

> <CNN_VS>
1.1026831865

> <CNNaffinity_variance>
0.1434052736

$$$$
[H]c1nc(N([H])c2c([H])c([H])c(N3C([H])([H])C([H])([H])C([H])(C([H])([H])[H])C([H])([H])C3([H])[H])c([H])c2OC([H])([H])[H])nc(N([H])c2c([H])c([H])c([H])c([H])c2S(=O)(=O)C([H])(C([H])([H])[H])C([H])([H])[H])c1Cl


 38 41  0  0  0  0  0  0  0  0999 V2000
   37.0100  -18.1367   36.5051 C   0  0  0  0  0  0  0  0  0  0  0  0
   36.0942  -18.8177   37.1906 N   0  0  0  0  0  0  0  0  0  0  0  0
   36.4087  -19.9015   37.9126 C   0  0  0  0  0  0  0  0  0  0  0  0
   37.6915  -20.3750   37.9897 C   0  0  0  0  0  0  0  0  0  0  0  0
   38.1115  -21.7649   38.9195 Cl  0  0  0  0  0  0  0  0  0  0  0  0
   38.6819  -19.6863   37.2828 C   0  0  0  0  0  0  0  0  0  0  0  0
   38.2698  -18.6243   36.5971 N   0  0  0  0  0  0  0  0  0  0  0  0
   36.7415  -16.9881   35.7262 N   0  0  0  0  0  0  0  0  0  0  0  0
   37.1626  -17.0633   34.7135 H   0  0  0  0  0  0  0  0  0  0  0  0
   34.6433  -15.9188   36.0023 C   0  0  0  0  0  0  0  0  0  0  0  0
   33.9056  -14.8194   36.3300 C   0  0  0  0  0  0  0  0  0  0  0  0
   34.4606  -13.6218   36.7268 C   0  0  0  0  0  0  0  0  0  0  0  0
   35.8282  -13.5317   36.7955 C   0  0  0  0  0  0  0  0  0  0  0  0
   36.6061  -14.6670   36.4575 C   0  0  0  0  0  0  0  0  0  0  0  0
   36.0504  -15.8448   36.0671 C   0  0  0  0  0  0  0  0  0  0  0  0
   33.6164  -12.5000   37.0589 N   0  0  0  0  0  0  0  0  0  0  0  0
   34.2625  -11.2233   37.2673 C   0  0  0  0  0  0  0  0  0  0  0  0
   33.3486  -10.1433   37.7259 C   0  0  0  0  0  0  0  0  0  0  0  0
   31.9599  -10.3205   37.1554 C   0  0  0  0  0  0  0  0  0  0  0  0
   31.0823   -9.2001   37.6100 C   0  0  0  0  0  0  0  0  0  0  0  0
   31.4095  -11.6152   37.7025 C   0  0  0  0  0  0  0  0  0  0  0  0
   32.2102  -12.7444   37.1544 C   0  0  0  0  0  0  0  0  0  0  0  0
   33.5224  -17.2720   34.2891 C   0  0  0  0  0  0  0  0  0  0  0  0
   34.0079  -17.1097   35.6053 O   0  0  0  0  0  0  0  0  0  0  0  0
   40.0155  -20.1276   37.2814 N   0  0  0  0  0  0  0  0  0  0  0  0
   40.0948  -21.1919   37.3204 H   0  0  0  0  0  0  0  0  0  0  0  0
   41.1597  -19.3148   37.2718 C   0  0  0  0  0  0  0  0  0  0  0  0
   41.4735  -18.4048   36.2714 C   0  0  0  0  0  0  0  0  0  0  0  0
   42.5530  -17.5393   36.3466 C   0  0  0  0  0  0  0  0  0  0  0  0
   43.3426  -17.5798   37.4485 C   0  0  0  0  0  0  0  0  0  0  0  0
   43.0460  -18.4676   38.4347 C   0  0  0  0  0  0  0  0  0  0  0  0
   41.9838  -19.3617   38.4226 C   0  0  0  0  0  0  0  0  0  0  0  0
   41.8186  -20.4809   39.7078 S   0  0  0  0  0  0  0  0  0  0  0  0
   40.4623  -20.2208   40.3806 O   0  0  0  0  0  0  0  0  0  0  0  0
   41.6371  -21.9098   39.2550 O   0  0  0  0  0  0  0  0  0  0  0  0
   42.9612  -20.3409   41.0248 C   0  0  0  0  0  0  0  0  0  0  0  0
   42.5893  -19.1225   41.8606 C   0  0  0  0  0  0  0  0  0  0  0  0
   44.3999  -20.3991   40.7289 C   0  0  0  0  0  0  0  0  0  0  0  0
 23 24  1  0  0  0
 24 10  1  0  0  0
 10 11  2  0  0  0
 11 12  1  0  0  0
 12 13  2  0  0  0
 13 14  1  0  0  0
 14 15  2  0  0  0
 15  8  1  0  0  0
  8  1  1  0  0  0
  1  2  2  0  0  0
  2  3  1  0  0  0
  3  4  2  0  0  0
  4  5  1  0  0  0
  4  6  1  0  0  0
  6 25  1  0  0  0
 25 27  1  0  0  0
 27 28  2  0  0  0
 28 29  1  0  0  0
 29 30  2  0  0  0
 30 31  1  0  0  0
 31 32  2  0  0  0
 32 33  1  0  0  0
 33 34  2  0  0  0
 33 35  2  0  0  0
 33 36  1  0  0  0
 36 37  1  0  0  0
 36 38  1  0  0  0
  6  7  2  0  0  0
 12 16  1  0  0  0
 16 17  1  0  0  0
 17 18  1  0  0  0
 18 19  1  0  0  0
 19 20  1  0  0  0
 19 21  1  0  0  0
 21 22  1  0  0  0
 15 10  1  0  0  0
  7  1  1  0  0  0
 22 16  1  0  0  0
 32 27  1  0  0  0
  8  9  1  0  0  0
 25 26  1  0  0  0
M  END
> <minimizedAffinity>
-7.87447

> <CNNscore>
0.1724641323

> <CNNaffinity>
6.3791313171

> <CNN_VS>
1.1001713276

> <CNNaffinity_variance>
0.1980253905

$$$$
[H]c1nc(N([H])c2c([H])c([H])c(N3C([H])([H])C([H])([H])C([H])(C([H])([H])[H])C([H])([H])C3([H])[H])c([H])c2OC([H])([H])[H])nc(N([H])c2c([H])c([H])c([H])c([H])c2S(=O)(=O)C([H])(C([H])([H])[H])C([H])([H])[H])c1Cl


 38 41  0  0  0  0  0  0  0  0999 V2000
   34.8623  -14.3567   36.5046 C   0  0  0  0  0  0  0  0  0  0  0  0
   35.4434  -13.2045   36.1773 N   0  0  0  0  0  0  0  0  0  0  0  0
   34.9820  -12.0264   36.6182 C   0  0  0  0  0  0  0  0  0  0  0  0
   33.8846  -11.9356   37.4325 C   0  0  0  0  0  0  0  0  0  0  0  0
   33.2834  -10.4271   38.0120 Cl  0  0  0  0  0  0  0  0  0  0  0  0
   33.2466  -13.1249   37.7982 C   0  0  0  0  0  0  0  0  0  0  0  0
   33.7800  -14.2406   37.3098 N   0  0  0  0  0  0  0  0  0  0  0  0
   35.3004  -15.6292   36.0724 N   0  0  0  0  0  0  0  0  0  0  0  0
   36.3768  -15.6462   35.8498 H   0  0  0  0  0  0  0  0  0  0  0  0
   35.1165  -17.9561   36.4896 C   0  0  0  0  0  0  0  0  0  0  0  0
   34.4439  -19.1355   36.3598 C   0  0  0  0  0  0  0  0  0  0  0  0
   33.2501  -19.2596   35.6822 C   0  0  0  0  0  0  0  0  0  0  0  0
   32.7102  -18.1362   35.1080 C   0  0  0  0  0  0  0  0  0  0  0  0
   33.3993  -16.9045   35.2356 C   0  0  0  0  0  0  0  0  0  0  0  0
   34.5767  -16.7909   35.9059 C   0  0  0  0  0  0  0  0  0  0  0  0
   32.5945  -20.5412   35.5861 N   0  0  0  0  0  0  0  0  0  0  0  0
   32.1943  -21.1751   36.8225 C   0  0  0  0  0  0  0  0  0  0  0  0
   31.6381  -22.5442   36.6555 C   0  0  0  0  0  0  0  0  0  0  0  0
   30.9017  -22.6809   35.3423 C   0  0  0  0  0  0  0  0  0  0  0  0
   30.3296  -24.0563   35.2268 C   0  0  0  0  0  0  0  0  0  0  0  0
   31.9109  -22.4854   34.2369 C   0  0  0  0  0  0  0  0  0  0  0  0
   32.3950  -21.0779   34.2752 C   0  0  0  0  0  0  0  0  0  0  0  0
   37.5066  -18.4835   36.6680 C   0  0  0  0  0  0  0  0  0  0  0  0
   36.3320  -17.9041   37.1962 O   0  0  0  0  0  0  0  0  0  0  0  0
   32.0943  -13.1156   38.6015 N   0  0  0  0  0  0  0  0  0  0  0  0
   32.1576  -13.8029   39.4165 H   0  0  0  0  0  0  0  0  0  0  0  0
   30.9403  -12.3454   38.3903 C   0  0  0  0  0  0  0  0  0  0  0  0
   30.7244  -11.5329   37.2855 C   0  0  0  0  0  0  0  0  0  0  0  0
   29.5287  -10.8721   37.0536 C   0  0  0  0  0  0  0  0  0  0  0  0
   28.5187  -11.0243   37.9457 C   0  0  0  0  0  0  0  0  0  0  0  0
   28.7184  -11.8168   39.0324 C   0  0  0  0  0  0  0  0  0  0  0  0
   29.8886  -12.5043   39.3255 C   0  0  0  0  0  0  0  0  0  0  0  0
   29.9995  -13.3777   40.7939 S   0  0  0  0  0  0  0  0  0  0  0  0
   30.1706  -14.8629   40.4408 O   0  0  0  0  0  0  0  0  0  0  0  0
   31.2745  -13.1237   41.5618 O   0  0  0  0  0  0  0  0  0  0  0  0
   28.5876  -13.3634   41.8264 C   0  0  0  0  0  0  0  0  0  0  0  0
   29.0496  -13.3857   43.2781 C   0  0  0  0  0  0  0  0  0  0  0  0
   27.5063  -14.3250   41.5680 C   0  0  0  0  0  0  0  0  0  0  0  0
 23 24  1  0  0  0
 24 10  1  0  0  0
 10 11  2  0  0  0
 11 12  1  0  0  0
 12 13  2  0  0  0
 13 14  1  0  0  0
 14 15  2  0  0  0
 15  8  1  0  0  0
  8  1  1  0  0  0
  1  2  2  0  0  0
  2  3  1  0  0  0
  3  4  2  0  0  0
  4  5  1  0  0  0
  4  6  1  0  0  0
  6 25  1  0  0  0
 25 27  1  0  0  0
 27 28  2  0  0  0
 28 29  1  0  0  0
 29 30  2  0  0  0
 30 31  1  0  0  0
 31 32  2  0  0  0
 32 33  1  0  0  0
 33 34  2  0  0  0
 33 35  2  0  0  0
 33 36  1  0  0  0
 36 37  1  0  0  0
 36 38  1  0  0  0
  6  7  2  0  0  0
 12 16  1  0  0  0
 16 17  1  0  0  0
 17 18  1  0  0  0
 18 19  1  0  0  0
 19 20  1  0  0  0
 19 21  1  0  0  0
 21 22  1  0  0  0
 15 10  1  0  0  0
  7  1  1  0  0  0
 22 16  1  0  0  0
 32 27  1  0  0  0
  8  9  1  0  0  0
 25 26  1  0  0  0
M  END
> <minimizedAffinity>
-8.50009

> <CNNscore>
0.1559317559

> <CNNaffinity>
6.4720296860

> <CNN_VS>
1.0091949701

> <CNNaffinity_variance>
0.5560038686

$$$$
[H]c1nc(N([H])c2c([H])c([H])c(N3C([H])([H])C([H])([H])N(C([H])([H])[H])C([H])([H])C3([H])[H])c([H])c2OC([H])([H])[H])nc(N([H])c2c([H])c([H])c([H])c([H])c2P(=O)(C([H])([H])[H])C([H])([H])[H])c1Cl


 36 39  0  0  0  0  0  0  0  0999 V2000
   32.8354  -12.4318   37.7728 C   0  0  0  0  0  0  0  0  0  0  0  0
   32.4608  -11.3224   37.1235 N   0  0  0  0  0  0  0  0  0  0  0  0
   31.2194  -10.8290   37.1328 C   0  0  0  0  0  0  0  0  0  0  0  0
   30.2868  -11.5278   37.8656 C   0  0  0  0  0  0  0  0  0  0  0  0
   28.6599  -10.8995   37.8899 Cl  0  0  0  0  0  0  0  0  0  0  0  0
   30.6462  -12.7091   38.5680 C   0  0  0  0  0  0  0  0  0  0  0  0
   31.8937  -13.1096   38.4940 N   0  0  0  0  0  0  0  0  0  0  0  0
   34.1609  -12.9099   37.7294 N   0  0  0  0  0  0  0  0  0  0  0  0
   34.8679  -12.2530   38.1929 H   0  0  0  0  0  0  0  0  0  0  0  0
   36.0533  -14.3196   37.3172 C   0  0  0  0  0  0  0  0  0  0  0  0
   36.6272  -15.4665   36.7994 C   0  0  0  0  0  0  0  0  0  0  0  0
   35.9143  -16.4263   36.1397 C   0  0  0  0  0  0  0  0  0  0  0  0
   34.5504  -16.1978   36.0062 C   0  0  0  0  0  0  0  0  0  0  0  0
   33.9566  -15.0611   36.5149 C   0  0  0  0  0  0  0  0  0  0  0  0
   34.6658  -14.0901   37.1798 C   0  0  0  0  0  0  0  0  0  0  0  0
   36.5303  -17.5803   35.6126 N   0  0  0  0  0  0  0  0  0  0  0  0
   37.3165  -18.4955   36.4179 C   0  0  0  0  0  0  0  0  0  0  0  0
   38.5748  -18.9675   35.7518 C   0  0  0  0  0  0  0  0  0  0  0  0
   38.5702  -19.0014   34.3377 N   0  0  0  0  0  0  0  0  0  0  0  0
   38.3251  -20.3003   33.7672 C   0  0  0  0  0  0  0  0  0  0  0  0
   37.8329  -17.9469   33.6831 C   0  0  0  0  0  0  0  0  0  0  0  0
   36.3908  -17.9225   34.2229 C   0  0  0  0  0  0  0  0  0  0  0  0
   38.1924  -13.2460   37.7771 C   0  0  0  0  0  0  0  0  0  0  0  0
   36.8069  -13.3771   37.9747 O   0  0  0  0  0  0  0  0  0  0  0  0
   29.6052  -13.3286   39.2802 N   0  0  0  0  0  0  0  0  0  0  0  0
   29.1900  -14.1797   38.8299 H   0  0  0  0  0  0  0  0  0  0  0  0
   29.0789  -12.9263   40.5128 C   0  0  0  0  0  0  0  0  0  0  0  0
   29.0612  -11.6313   40.9978 C   0  0  0  0  0  0  0  0  0  0  0  0
   28.5126  -11.3578   42.2384 C   0  0  0  0  0  0  0  0  0  0  0  0
   27.9769  -12.3400   43.0178 C   0  0  0  0  0  0  0  0  0  0  0  0
   27.9983  -13.6388   42.5242 C   0  0  0  0  0  0  0  0  0  0  0  0
   28.5292  -13.9605   41.3037 C   0  0  0  0  0  0  0  0  0  0  0  0
   28.5042  -15.6270   40.7710 P   0  0  0  0  0  0  0  0  0  0  0  0
   27.6314  -15.9099   39.2209 C   0  0  0  0  0  0  0  0  0  0  0  0
   27.6203  -16.6153   42.0472 C   0  0  0  0  0  0  0  0  0  0  0  0
   29.8922  -16.2350   40.6940 O   0  0  0  0  0  0  0  0  0  0  0  0
 23 24  1  0  0  0
 24 10  1  0  0  0
 10 11  2  0  0  0
 11 12  1  0  0  0
 12 13  2  0  0  0
 13 14  1  0  0  0
 14 15  2  0  0  0
 15  8  1  0  0  0
  8  1  1  0  0  0
  1  2  2  0  0  0
  2  3  1  0  0  0
  3  4  2  0  0  0
  4  5  1  0  0  0
  4  6  1  0  0  0
  6 25  1  0  0  0
 25 27  1  0  0  0
 27 28  2  0  0  0
 28 29  1  0  0  0
 29 30  2  0  0  0
 30 31  1  0  0  0
 31 32  2  0  0  0
 32 33  1  0  0  0
 33 34  1  0  0  0
 33 35  1  0  0  0
 33 36  2  0  0  0
  6  7  2  0  0  0
 12 16  1  0  0  0
 16 17  1  0  0  0
 17 18  1  0  0  0
 18 19  1  0  0  0
 19 20  1  0  0  0
 19 21  1  0  0  0
 21 22  1  0  0  0
 15 10  1  0  0  0
  7  1  1  0  0  0
 22 16  1  0  0  0
 32 27  1  0  0  0
  8  9  1  0  0  0
 25 26  1  0  0  0
M  END
> <minimizedAffinity>
-7.65246

> <CNNscore>
0.5948926806

> <CNNaffinity>
6.9396934509

> <CNN_VS>
4.1283726692

> <CNNaffinity_variance>
0.1237536445

$$$$
[H]c1nc(N([H])c2c([H])c([H])c(N3C([H])([H])C([H])([H])N(C([H])([H])[H])C([H])([H])C3([H])[H])c([H])c2OC([H])([H])[H])nc(N([H])c2c([H])c([H])c([H])c([H])c2P(=O)(C([H])([H])[H])C([H])([H])[H])c1Cl


 36 39  0  0  0  0  0  0  0  0999 V2000
   35.7569  -13.5588   37.0778 C   0  0  0  0  0  0  0  0  0  0  0  0
   37.0934  -13.6345   37.1035 N   0  0  0  0  0  0  0  0  0  0  0  0
   37.7814  -14.7795   37.1139 C   0  0  0  0  0  0  0  0  0  0  0  0
   37.0414  -15.9402   37.0968 C   0  0  0  0  0  0  0  0  0  0  0  0
   37.9216  -17.4459   37.1103 Cl  0  0  0  0  0  0  0  0  0  0  0  0
   35.6217  -15.9006   37.0693 C   0  0  0  0  0  0  0  0  0  0  0  0
   35.0423  -14.7231   37.0611 N   0  0  0  0  0  0  0  0  0  0  0  0
   35.0799  -12.3224   37.0681 N   0  0  0  0  0  0  0  0  0  0  0  0
   35.7017  -11.4964   36.7902 H   0  0  0  0  0  0  0  0  0  0  0  0
   33.3907  -10.6692   37.4585 C   0  0  0  0  0  0  0  0  0  0  0  0
   32.0884  -10.3041   37.7473 C   0  0  0  0  0  0  0  0  0  0  0  0
   31.0872  -11.2091   37.9546 C   0  0  0  0  0  0  0  0  0  0  0  0
   31.4396  -12.5497   37.8606 C   0  0  0  0  0  0  0  0  0  0  0  0
   32.7322  -12.9371   37.5733 C   0  0  0  0  0  0  0  0  0  0  0  0
   33.7460  -12.0336   37.3634 C   0  0  0  0  0  0  0  0  0  0  0  0
   29.7705  -10.8057   38.2591 N   0  0  0  0  0  0  0  0  0  0  0  0
   29.4181   -9.4374   38.5870 C   0  0  0  0  0  0  0  0  0  0  0  0
   28.4506   -9.3130   39.7264 C   0  0  0  0  0  0  0  0  0  0  0  0
   27.5714  -10.4014   39.9343 N   0  0  0  0  0  0  0  0  0  0  0  0
   26.2497  -10.2200   39.3931 C   0  0  0  0  0  0  0  0  0  0  0  0
   28.1161  -11.7123   39.6715 C   0  0  0  0  0  0  0  0  0  0  0  0
   28.6861  -11.7499   38.2413 C   0  0  0  0  0  0  0  0  0  0  0  0
   34.1544   -8.5653   36.4942 C   0  0  0  0  0  0  0  0  0  0  0  0
   34.3698   -9.7262   37.2568 O   0  0  0  0  0  0  0  0  0  0  0  0
   34.9827  -17.1519   37.0515 N   0  0  0  0  0  0  0  0  0  0  0  0
   35.0258  -17.6972   37.9462 H   0  0  0  0  0  0  0  0  0  0  0  0
   34.3046  -17.7304   35.9727 C   0  0  0  0  0  0  0  0  0  0  0  0
   33.6966  -17.0410   34.9395 C   0  0  0  0  0  0  0  0  0  0  0  0
   33.0516  -17.7279   33.9261 C   0  0  0  0  0  0  0  0  0  0  0  0
   32.9921  -19.0900   33.9082 C   0  0  0  0  0  0  0  0  0  0  0  0
   33.6051  -19.7761   34.9496 C   0  0  0  0  0  0  0  0  0  0  0  0
   34.2553  -19.1427   35.9748 C   0  0  0  0  0  0  0  0  0  0  0  0
   34.9989  -20.0985   37.2379 P   0  0  0  0  0  0  0  0  0  0  0  0
   36.6541  -20.6970   36.8549 C   0  0  0  0  0  0  0  0  0  0  0  0
   33.9590  -21.5938   37.5016 C   0  0  0  0  0  0  0  0  0  0  0  0
   35.0105  -19.3860   38.5774 O   0  0  0  0  0  0  0  0  0  0  0  0
 23 24  1  0  0  0
 24 10  1  0  0  0
 10 11  2  0  0  0
 11 12  1  0  0  0
 12 13  2  0  0  0
 13 14  1  0  0  0
 14 15  2  0  0  0
 15  8  1  0  0  0
  8  1  1  0  0  0
  1  2  2  0  0  0
  2  3  1  0  0  0
  3  4  2  0  0  0
  4  5  1  0  0  0
  4  6  1  0  0  0
  6 25  1  0  0  0
 25 27  1  0  0  0
 27 28  2  0  0  0
 28 29  1  0  0  0
 29 30  2  0  0  0
 30 31  1  0  0  0
 31 32  2  0  0  0
 32 33  1  0  0  0
 33 34  1  0  0  0
 33 35  1  0  0  0
 33 36  2  0  0  0
  6  7  2  0  0  0
 12 16  1  0  0  0
 16 17  1  0  0  0
 17 18  1  0  0  0
 18 19  1  0  0  0
 19 20  1  0  0  0
 19 21  1  0  0  0
 21 22  1  0  0  0
 15 10  1  0  0  0
  7  1  1  0  0  0
 22 16  1  0  0  0
 32 27  1  0  0  0
  8  9  1  0  0  0
 25 26  1  0  0  0
M  END
> <minimizedAffinity>
-6.53724

> <CNNscore>
0.4110532701

> <CNNaffinity>
7.1120619774

> <CNN_VS>
2.9234364033

> <CNNaffinity_variance>
0.0689271614

$$$$
[H]c1nc(N([H])c2c([H])c([H])c(N3C([H])([H])C([H])([H])N(C([H])([H])[H])C([H])([H])C3([H])[H])c([H])c2OC([H])([H])[H])nc(N([H])c2c([H])c([H])c([H])c([H])c2P(=O)(C([H])([H])[H])C([H])([H])[H])c1Cl


 36 39  0  0  0  0  0  0  0  0999 V2000
   34.3785  -12.0612   37.0496 C   0  0  0  0  0  0  0  0  0  0  0  0
   34.3356  -10.7743   36.6826 N   0  0  0  0  0  0  0  0  0  0  0  0
   33.3702   -9.9227   37.0393 C   0  0  0  0  0  0  0  0  0  0  0  0
   32.3683  -10.4296   37.8357 C   0  0  0  0  0  0  0  0  0  0  0  0
   31.0982   -9.3331   38.3120 Cl  0  0  0  0  0  0  0  0  0  0  0  0
   32.3791  -11.7896   38.2457 C   0  0  0  0  0  0  0  0  0  0  0  0
   33.3739  -12.5433   37.8401 N   0  0  0  0  0  0  0  0  0  0  0  0
   35.4218  -12.9181   36.6441 N   0  0  0  0  0  0  0  0  0  0  0  0
   36.2754  -12.3998   36.2581 H   0  0  0  0  0  0  0  0  0  0  0  0
   36.4980  -14.8849   37.4879 C   0  0  0  0  0  0  0  0  0  0  0  0
   36.6317  -16.2590   37.5705 C   0  0  0  0  0  0  0  0  0  0  0  0
   35.8277  -17.1300   36.8928 C   0  0  0  0  0  0  0  0  0  0  0  0
   34.8415  -16.5640   36.0945 C   0  0  0  0  0  0  0  0  0  0  0  0
   34.6895  -15.1962   35.9971 C   0  0  0  0  0  0  0  0  0  0  0  0
   35.4939  -14.3123   36.6751 C   0  0  0  0  0  0  0  0  0  0  0  0
   35.9964  -18.5270   36.9886 N   0  0  0  0  0  0  0  0  0  0  0  0
   35.4500  -19.3173   38.0753 C   0  0  0  0  0  0  0  0  0  0  0  0
   36.3875  -20.3643   38.5994 C   0  0  0  0  0  0  0  0  0  0  0  0
   37.3459  -20.8705   37.6906 N   0  0  0  0  0  0  0  0  0  0  0  0
   37.0003  -22.1334   37.0921 C   0  0  0  0  0  0  0  0  0  0  0  0
   37.8801  -19.9216   36.7426 C   0  0  0  0  0  0  0  0  0  0  0  0
   36.7199  -19.2542   35.9809 C   0  0  0  0  0  0  0  0  0  0  0  0
   38.4639  -13.4495   37.6072 C   0  0  0  0  0  0  0  0  0  0  0  0
   37.3289  -14.0423   38.1867 O   0  0  0  0  0  0  0  0  0  0  0  0
   31.3026  -12.1842   39.0583 N   0  0  0  0  0  0  0  0  0  0  0  0
   31.5618  -12.6281   39.9723 H   0  0  0  0  0  0  0  0  0  0  0  0
   29.9406  -12.0429   38.7702 C   0  0  0  0  0  0  0  0  0  0  0  0
   29.4132  -11.4369   37.6445 C   0  0  0  0  0  0  0  0  0  0  0  0
   28.0425  -11.3558   37.4725 C   0  0  0  0  0  0  0  0  0  0  0  0
   27.1732  -11.8627   38.3925 C   0  0  0  0  0  0  0  0  0  0  0  0
   27.7102  -12.4700   39.5212 C   0  0  0  0  0  0  0  0  0  0  0  0
   29.0582  -12.5753   39.7373 C   0  0  0  0  0  0  0  0  0  0  0  0
   29.6340  -13.3625   41.1901 P   0  0  0  0  0  0  0  0  0  0  0  0
   29.4516  -15.1545   41.1993 C   0  0  0  0  0  0  0  0  0  0  0  0
   28.6378  -12.7363   42.6050 C   0  0  0  0  0  0  0  0  0  0  0  0
   31.0672  -12.9931   41.5239 O   0  0  0  0  0  0  0  0  0  0  0  0
 23 24  1  0  0  0
 24 10  1  0  0  0
 10 11  2  0  0  0
 11 12  1  0  0  0
 12 13  2  0  0  0
 13 14  1  0  0  0
 14 15  2  0  0  0
 15  8  1  0  0  0
  8  1  1  0  0  0
  1  2  2  0  0  0
  2  3  1  0  0  0
  3  4  2  0  0  0
  4  5  1  0  0  0
  4  6  1  0  0  0
  6 25  1  0  0  0
 25 27  1  0  0  0
 27 28  2  0  0  0
 28 29  1  0  0  0
 29 30  2  0  0  0
 30 31  1  0  0  0
 31 32  2  0  0  0
 32 33  1  0  0  0
 33 34  1  0  0  0
 33 35  1  0  0  0
 33 36  2  0  0  0
  6  7  2  0  0  0
 12 16  1  0  0  0
 16 17  1  0  0  0
 17 18  1  0  0  0
 18 19  1  0  0  0
 19 20  1  0  0  0
 19 21  1  0  0  0
 21 22  1  0  0  0
 15 10  1  0  0  0
  7  1  1  0  0  0
 22 16  1  0  0  0
 32 27  1  0  0  0
  8  9  1  0  0  0
 25 26  1  0  0  0
M  END
> <minimizedAffinity>
-7.44499

> <CNNscore>
0.4040857553

> <CNNaffinity>
6.7274308205

> <CNN_VS>
2.7184588909

> <CNNaffinity_variance>
0.1223996431

$$$$
[H]c1nc(N([H])c2c([H])c([H])c(N3C([H])([H])C([H])([H])N(C([H])([H])[H])C([H])([H])C3([H])[H])c([H])c2OC([H])([H])[H])nc(N([H])c2c([H])c([H])c([H])c([H])c2P(=O)(C([H])([H])[H])C([H])([H])[H])c1Cl


 36 39  0  0  0  0  0  0  0  0999 V2000
   36.2750  -17.2871   36.1480 C   0  0  0  0  0  0  0  0  0  0  0  0
   37.3157  -17.8092   36.8090 N   0  0  0  0  0  0  0  0  0  0  0  0
   37.4344  -19.1022   37.1234 C   0  0  0  0  0  0  0  0  0  0  0  0
   36.4048  -19.9265   36.7293 C   0  0  0  0  0  0  0  0  0  0  0  0
   36.5412  -21.6184   37.1307 Cl  0  0  0  0  0  0  0  0  0  0  0  0
   35.2839  -19.4096   36.0261 C   0  0  0  0  0  0  0  0  0  0  0  0
   35.2644  -18.1234   35.7664 N   0  0  0  0  0  0  0  0  0  0  0  0
   36.1994  -15.9132   35.8415 N   0  0  0  0  0  0  0  0  0  0  0  0
   37.0091  -15.5654   35.2336 H   0  0  0  0  0  0  0  0  0  0  0  0
   35.5801  -14.0864   37.2620 C   0  0  0  0  0  0  0  0  0  0  0  0
   34.6823  -13.1228   37.6845 C   0  0  0  0  0  0  0  0  0  0  0  0
   33.4436  -12.9628   37.1328 C   0  0  0  0  0  0  0  0  0  0  0  0
   33.1122  -13.8314   36.1004 C   0  0  0  0  0  0  0  0  0  0  0  0
   33.9919  -14.7999   35.6625 C   0  0  0  0  0  0  0  0  0  0  0  0
   35.2402  -14.9683   36.2116 C   0  0  0  0  0  0  0  0  0  0  0  0
   32.5454  -11.9778   37.5935 N   0  0  0  0  0  0  0  0  0  0  0  0
   31.1420  -12.2432   37.8470 C   0  0  0  0  0  0  0  0  0  0  0  0
   30.2202  -11.1623   37.3658 C   0  0  0  0  0  0  0  0  0  0  0  0
   30.7536   -9.8537   37.3047 N   0  0  0  0  0  0  0  0  0  0  0  0
   30.4141   -9.0121   38.4224 C   0  0  0  0  0  0  0  0  0  0  0  0
   32.1422   -9.7550   36.9225 C   0  0  0  0  0  0  0  0  0  0  0  0
   32.9918  -10.6365   37.8567 C   0  0  0  0  0  0  0  0  0  0  0  0
   37.8855  -13.3495   37.5479 C   0  0  0  0  0  0  0  0  0  0  0  0
   36.8182  -14.2146   37.8446 O   0  0  0  0  0  0  0  0  0  0  0  0
   34.3020  -20.3525   35.6778 N   0  0  0  0  0  0  0  0  0  0  0  0
   34.6153  -21.3532   35.6692 H   0  0  0  0  0  0  0  0  0  0  0  0
   32.9679  -20.0889   35.3479 C   0  0  0  0  0  0  0  0  0  0  0  0
   32.5369  -19.1926   34.3869 C   0  0  0  0  0  0  0  0  0  0  0  0
   31.1845  -19.0167   34.1526 C   0  0  0  0  0  0  0  0  0  0  0  0
   30.2399  -19.7099   34.8499 C   0  0  0  0  0  0  0  0  0  0  0  0
   30.6801  -20.6087   35.8139 C   0  0  0  0  0  0  0  0  0  0  0  0
   32.0063  -20.8184   36.0830 C   0  0  0  0  0  0  0  0  0  0  0  0
   32.4578  -21.9760   37.3150 P   0  0  0  0  0  0  0  0  0  0  0  0
   33.4353  -23.3672   36.7203 C   0  0  0  0  0  0  0  0  0  0  0  0
   30.9122  -22.6930   38.0107 C   0  0  0  0  0  0  0  0  0  0  0  0
   33.1570  -21.3279   38.4953 O   0  0  0  0  0  0  0  0  0  0  0  0
 23 24  1  0  0  0
 24 10  1  0  0  0
 10 11  2  0  0  0
 11 12  1  0  0  0
 12 13  2  0  0  0
 13 14  1  0  0  0
 14 15  2  0  0  0
 15  8  1  0  0  0
  8  1  1  0  0  0
  1  2  2  0  0  0
  2  3  1  0  0  0
  3  4  2  0  0  0
  4  5  1  0  0  0
  4  6  1  0  0  0
  6 25  1  0  0  0
 25 27  1  0  0  0
 27 28  2  0  0  0
 28 29  1  0  0  0
 29 30  2  0  0  0
 30 31  1  0  0  0
 31 32  2  0  0  0
 32 33  1  0  0  0
 33 34  1  0  0  0
 33 35  1  0  0  0
 33 36  2  0  0  0
  6  7  2  0  0  0
 12 16  1  0  0  0
 16 17  1  0  0  0
 17 18  1  0  0  0
 18 19  1  0  0  0
 19 20  1  0  0  0
 19 21  1  0  0  0
 21 22  1  0  0  0
 15 10  1  0  0  0
  7  1  1  0  0  0
 22 16  1  0  0  0
 32 27  1  0  0  0
  8  9  1  0  0  0
 25 26  1  0  0  0
M  END
> <minimizedAffinity>
-7.32800

> <CNNscore>
0.3792234659

> <CNNaffinity>
6.7258691788

> <CNN_VS>
2.5506074429

> <CNNaffinity_variance>
0.0417488292

$$$$
[H]c1nc(N([H])c2c([H])c([H])c(N3C([H])([H])C([H])([H])N(C([H])([H])[H])C([H])([H])C3([H])[H])c([H])c2OC([H])([H])[H])nc(N([H])c2c([H])c([H])c([H])c([H])c2P(=O)(C([H])([H])[H])C([H])([H])[H])c1Cl


 36 39  0  0  0  0  0  0  0  0999 V2000
   36.6952  -17.5342   36.6771 C   0  0  0  0  0  0  0  0  0  0  0  0
   35.7247  -18.1284   37.3824 N   0  0  0  0  0  0  0  0  0  0  0  0
   35.8129  -19.3594   37.8935 C   0  0  0  0  0  0  0  0  0  0  0  0
   36.9894  -20.0363   37.6639 C   0  0  0  0  0  0  0  0  0  0  0  0
   37.1238  -21.6455   38.3231 Cl  0  0  0  0  0  0  0  0  0  0  0  0
   38.0421  -19.4392   36.9201 C   0  0  0  0  0  0  0  0  0  0  0  0
   37.8545  -18.2241   36.4611 N   0  0  0  0  0  0  0  0  0  0  0  0
   36.5500  -16.2311   36.1591 N   0  0  0  0  0  0  0  0  0  0  0  0
   37.2979  -15.9716   35.4382 H   0  0  0  0  0  0  0  0  0  0  0  0
   35.9592  -14.2480   37.3659 C   0  0  0  0  0  0  0  0  0  0  0  0
   35.0639  -13.2490   37.7024 C   0  0  0  0  0  0  0  0  0  0  0  0
   33.8015  -13.1726   37.1876 C   0  0  0  0  0  0  0  0  0  0  0  0
   33.4428  -14.1670   36.2861 C   0  0  0  0  0  0  0  0  0  0  0  0
   34.3196  -15.1730   35.9355 C   0  0  0  0  0  0  0  0  0  0  0  0
   35.5915  -15.2579   36.4486 C   0  0  0  0  0  0  0  0  0  0  0  0
   32.9069  -12.1477   37.5593 N   0  0  0  0  0  0  0  0  0  0  0  0
   31.4757  -12.3513   37.6784 C   0  0  0  0  0  0  0  0  0  0  0  0
   30.6513  -11.2346   37.1102 C   0  0  0  0  0  0  0  0  0  0  0  0
   31.2440   -9.9503   37.0985 N   0  0  0  0  0  0  0  0  0  0  0  0
   30.8364   -9.0890   38.1777 C   0  0  0  0  0  0  0  0  0  0  0  0
   32.6657   -9.9132   36.8502 C   0  0  0  0  0  0  0  0  0  0  0  0
   33.3837  -10.8253   37.8622 C   0  0  0  0  0  0  0  0  0  0  0  0
   38.1884  -13.3032   37.6446 C   0  0  0  0  0  0  0  0  0  0  0  0
   37.2216  -14.2889   37.9075 O   0  0  0  0  0  0  0  0  0  0  0  0
   39.1913  -20.2312   36.7572 N   0  0  0  0  0  0  0  0  0  0  0  0
   39.0640  -21.2579   36.9282 H   0  0  0  0  0  0  0  0  0  0  0  0
   40.4681  -19.7889   36.3935 C   0  0  0  0  0  0  0  0  0  0  0  0
   40.7448  -18.7862   35.4820 C   0  0  0  0  0  0  0  0  0  0  0  0
   42.0547  -18.4385   35.2026 C   0  0  0  0  0  0  0  0  0  0  0  0
   43.1064  -19.0619   35.8064 C   0  0  0  0  0  0  0  0  0  0  0  0
   42.8209  -20.0684   36.7210 C   0  0  0  0  0  0  0  0  0  0  0  0
   41.5427  -20.4488   37.0314 C   0  0  0  0  0  0  0  0  0  0  0  0
   41.2890  -21.7259   38.2003 P   0  0  0  0  0  0  0  0  0  0  0  0
   40.3380  -23.1286   37.5899 C   0  0  0  0  0  0  0  0  0  0  0  0
   40.3281  -21.0245   39.6044 C   0  0  0  0  0  0  0  0  0  0  0  0
   42.5853  -22.2172   38.8171 O   0  0  0  0  0  0  0  0  0  0  0  0
 23 24  1  0  0  0
 24 10  1  0  0  0
 10 11  2  0  0  0
 11 12  1  0  0  0
 12 13  2  0  0  0
 13 14  1  0  0  0
 14 15  2  0  0  0
 15  8  1  0  0  0
  8  1  1  0  0  0
  1  2  2  0  0  0
  2  3  1  0  0  0
  3  4  2  0  0  0
  4  5  1  0  0  0
  4  6  1  0  0  0
  6 25  1  0  0  0
 25 27  1  0  0  0
 27 28  2  0  0  0
 28 29  1  0  0  0
 29 30  2  0  0  0
 30 31  1  0  0  0
 31 32  2  0  0  0
 32 33  1  0  0  0
 33 34  1  0  0  0
 33 35  1  0  0  0
 33 36  2  0  0  0
  6  7  2  0  0  0
 12 16  1  0  0  0
 16 17  1  0  0  0
 17 18  1  0  0  0
 18 19  1  0  0  0
 19 20  1  0  0  0
 19 21  1  0  0  0
 21 22  1  0  0  0
 15 10  1  0  0  0
  7  1  1  0  0  0
 22 16  1  0  0  0
 32 27  1  0  0  0
  8  9  1  0  0  0
 25 26  1  0  0  0
M  END
> <minimizedAffinity>
-6.33077

> <CNNscore>
0.3747927845

> <CNNaffinity>
6.4922342300

> <CNN_VS>
2.4332425594

> <CNNaffinity_variance>
0.1170226187

$$$$
[H]c1nc(N([H])c2c([H])c([H])c(N3C([H])([H])C([H])([H])N(C([H])([H])[H])C([H])([H])C3([H])[H])c([H])c2OC([H])([H])[H])nc(N([H])c2c([H])c([H])c([H])c([H])c2P(=O)(C([H])([H])[H])C([H])([H])[H])c1Cl


 36 39  0  0  0  0  0  0  0  0999 V2000
   33.6618  -14.2832   36.6765 C   0  0  0  0  0  0  0  0  0  0  0  0
   34.5173  -13.3493   36.2425 N   0  0  0  0  0  0  0  0  0  0  0  0
   34.4954  -12.0712   36.6306 C   0  0  0  0  0  0  0  0  0  0  0  0
   33.5190  -11.7215   37.5358 C   0  0  0  0  0  0  0  0  0  0  0  0
   33.4737  -10.0569   38.0547 Cl  0  0  0  0  0  0  0  0  0  0  0  0
   32.5931  -12.6842   38.0194 C   0  0  0  0  0  0  0  0  0  0  0  0
   32.7007  -13.9142   37.5746 N   0  0  0  0  0  0  0  0  0  0  0  0
   33.7289  -15.6199   36.2337 N   0  0  0  0  0  0  0  0  0  0  0  0
   32.7715  -16.0472   36.0167 H   0  0  0  0  0  0  0  0  0  0  0  0
   34.7503  -17.4219   35.0303 C   0  0  0  0  0  0  0  0  0  0  0  0
   35.8118  -18.2732   34.7828 C   0  0  0  0  0  0  0  0  0  0  0  0
   36.9849  -18.2271   35.4800 C   0  0  0  0  0  0  0  0  0  0  0  0
   37.0717  -17.2626   36.4763 C   0  0  0  0  0  0  0  0  0  0  0  0
   36.0256  -16.4026   36.7405 C   0  0  0  0  0  0  0  0  0  0  0  0
   34.8417  -16.4419   36.0442 C   0  0  0  0  0  0  0  0  0  0  0  0
   38.0456  -19.1170   35.2118 N   0  0  0  0  0  0  0  0  0  0  0  0
   39.1753  -19.2934   36.1044 C   0  0  0  0  0  0  0  0  0  0  0  0
   40.4983  -19.3828   35.4034 C   0  0  0  0  0  0  0  0  0  0  0  0
   40.4830  -19.8805   34.0795 N   0  0  0  0  0  0  0  0  0  0  0  0
   40.8401  -21.2694   33.9539 C   0  0  0  0  0  0  0  0  0  0  0  0
   39.3368  -19.5159   33.2811 C   0  0  0  0  0  0  0  0  0  0  0  0
   38.0495  -19.9238   34.0215 C   0  0  0  0  0  0  0  0  0  0  0  0
   32.7156  -18.6021   34.3925 C   0  0  0  0  0  0  0  0  0  0  0  0
   33.5856  -17.5015   34.3052 O   0  0  0  0  0  0  0  0  0  0  0  0
   31.6473  -12.2032   38.9406 N   0  0  0  0  0  0  0  0  0  0  0  0
   32.0007  -12.0470   39.9154 H   0  0  0  0  0  0  0  0  0  0  0  0
   30.3015  -11.9163   38.6860 C   0  0  0  0  0  0  0  0  0  0  0  0
   29.8209  -11.1948   37.6085 C   0  0  0  0  0  0  0  0  0  0  0  0
   28.4622  -10.9739   37.4662 C   0  0  0  0  0  0  0  0  0  0  0  0
   27.5597  -11.4522   38.3694 C   0  0  0  0  0  0  0  0  0  0  0  0
   28.0498  -12.1761   39.4495 C   0  0  0  0  0  0  0  0  0  0  0  0
   29.3841  -12.4215   39.6347 C   0  0  0  0  0  0  0  0  0  0  0  0
   29.8996  -13.3479   41.0269 P   0  0  0  0  0  0  0  0  0  0  0  0
   29.7329  -15.1325   40.8486 C   0  0  0  0  0  0  0  0  0  0  0  0
   28.8340  -12.8709   42.4494 C   0  0  0  0  0  0  0  0  0  0  0  0
   31.3127  -13.0078   41.4622 O   0  0  0  0  0  0  0  0  0  0  0  0
 23 24  1  0  0  0
 24 10  1  0  0  0
 10 11  2  0  0  0
 11 12  1  0  0  0
 12 13  2  0  0  0
 13 14  1  0  0  0
 14 15  2  0  0  0
 15  8  1  0  0  0
  8  1  1  0  0  0
  1  2  2  0  0  0
  2  3  1  0  0  0
  3  4  2  0  0  0
  4  5  1  0  0  0
  4  6  1  0  0  0
  6 25  1  0  0  0
 25 27  1  0  0  0
 27 28  2  0  0  0
 28 29  1  0  0  0
 29 30  2  0  0  0
 30 31  1  0  0  0
 31 32  2  0  0  0
 32 33  1  0  0  0
 33 34  1  0  0  0
 33 35  1  0  0  0
 33 36  2  0  0  0
  6  7  2  0  0  0
 12 16  1  0  0  0
 16 17  1  0  0  0
 17 18  1  0  0  0
 18 19  1  0  0  0
 19 20  1  0  0  0
 19 21  1  0  0  0
 21 22  1  0  0  0
 15 10  1  0  0  0
  7  1  1  0  0  0
 22 16  1  0  0  0
 32 27  1  0  0  0
  8  9  1  0  0  0
 25 26  1  0  0  0
M  END
> <minimizedAffinity>
-8.58411

> <CNNscore>
0.3741733730

> <CNNaffinity>
6.6179552078

> <CNN_VS>
2.4762625694

> <CNNaffinity_variance>
0.1042470932

$$$$
[H]c1nc(N([H])c2c([H])c([H])c(N3C([H])([H])C([H])([H])N(C([H])([H])[H])C([H])([H])C3([H])[H])c([H])c2OC([H])([H])[H])nc(N([H])c2c([H])c([H])c([H])c([H])c2P(=O)(C([H])([H])[H])C([H])([H])[H])c1Cl


 36 39  0  0  0  0  0  0  0  0999 V2000
   33.8203  -11.4377   36.9182 C   0  0  0  0  0  0  0  0  0  0  0  0
   33.8216  -10.1000   36.9722 N   0  0  0  0  0  0  0  0  0  0  0  0
   32.7841   -9.3631   37.3786 C   0  0  0  0  0  0  0  0  0  0  0  0
   31.6546  -10.0514   37.7601 C   0  0  0  0  0  0  0  0  0  0  0  0
   30.2889   -9.1069   38.2937 Cl  0  0  0  0  0  0  0  0  0  0  0  0
   31.6150  -11.4708   37.7167 C   0  0  0  0  0  0  0  0  0  0  0  0
   32.6889  -12.1006   37.3015 N   0  0  0  0  0  0  0  0  0  0  0  0
   34.9441  -12.1676   36.4804 N   0  0  0  0  0  0  0  0  0  0  0  0
   35.7399  -11.5505   36.1170 H   0  0  0  0  0  0  0  0  0  0  0  0
   36.4326  -14.0071   36.8537 C   0  0  0  0  0  0  0  0  0  0  0  0
   36.7191  -15.3601   36.8560 C   0  0  0  0  0  0  0  0  0  0  0  0
   35.8170  -16.3155   36.4846 C   0  0  0  0  0  0  0  0  0  0  0  0
   34.5639  -15.8605   36.0935 C   0  0  0  0  0  0  0  0  0  0  0  0
   34.2558  -14.5157   36.0836 C   0  0  0  0  0  0  0  0  0  0  0  0
   35.1571  -13.5474   36.4555 C   0  0  0  0  0  0  0  0  0  0  0  0
   36.1429  -17.6877   36.4865 N   0  0  0  0  0  0  0  0  0  0  0  0
   35.4698  -18.6596   37.3269 C   0  0  0  0  0  0  0  0  0  0  0  0
   36.3909  -19.6577   37.9633 C   0  0  0  0  0  0  0  0  0  0  0  0
   37.5922  -19.9431   37.2732 N   0  0  0  0  0  0  0  0  0  0  0  0
   37.5654  -21.1520   36.4919 C   0  0  0  0  0  0  0  0  0  0  0  0
   38.2004  -18.8331   36.5787 C   0  0  0  0  0  0  0  0  0  0  0  0
   37.1700  -18.2039   35.6226 C   0  0  0  0  0  0  0  0  0  0  0  0
   38.5998  -13.4372   37.8120 C   0  0  0  0  0  0  0  0  0  0  0  0
   37.3698  -13.0770   37.2349 O   0  0  0  0  0  0  0  0  0  0  0  0
   30.4067  -12.0544   38.1336 N   0  0  0  0  0  0  0  0  0  0  0  0
   29.6880  -12.1971   37.3835 H   0  0  0  0  0  0  0  0  0  0  0  0
   30.0762  -12.4580   39.4321 C   0  0  0  0  0  0  0  0  0  0  0  0
   30.9551  -12.9845   40.3611 C   0  0  0  0  0  0  0  0  0  0  0  0
   30.5062  -13.3505   41.6178 C   0  0  0  0  0  0  0  0  0  0  0  0
   29.2001  -13.2081   41.9823 C   0  0  0  0  0  0  0  0  0  0  0  0
   28.3227  -12.6785   41.0438 C   0  0  0  0  0  0  0  0  0  0  0  0
   28.7175  -12.3014   39.7881 C   0  0  0  0  0  0  0  0  0  0  0  0
   27.5348  -11.6411   38.6804 P   0  0  0  0  0  0  0  0  0  0  0  0
   26.6670  -10.1832   39.2852 C   0  0  0  0  0  0  0  0  0  0  0  0
   26.2477  -12.9253   38.3961 C   0  0  0  0  0  0  0  0  0  0  0  0
   28.1167  -11.3566   37.3083 O   0  0  0  0  0  0  0  0  0  0  0  0
 23 24  1  0  0  0
 24 10  1  0  0  0
 10 11  2  0  0  0
 11 12  1  0  0  0
 12 13  2  0  0  0
 13 14  1  0  0  0
 14 15  2  0  0  0
 15  8  1  0  0  0
  8  1  1  0  0  0
  1  2  2  0  0  0
  2  3  1  0  0  0
  3  4  2  0  0  0
  4  5  1  0  0  0
  4  6  1  0  0  0
  6 25  1  0  0  0
 25 27  1  0  0  0
 27 28  2  0  0  0
 28 29  1  0  0  0
 29 30  2  0  0  0
 30 31  1  0  0  0
 31 32  2  0  0  0
 32 33  1  0  0  0
 33 34  1  0  0  0
 33 35  1  0  0  0
 33 36  2  0  0  0
  6  7  2  0  0  0
 12 16  1  0  0  0
 16 17  1  0  0  0
 17 18  1  0  0  0
 18 19  1  0  0  0
 19 20  1  0  0  0
 19 21  1  0  0  0
 21 22  1  0  0  0
 15 10  1  0  0  0
  7  1  1  0  0  0
 22 16  1  0  0  0
 32 27  1  0  0  0
  8  9  1  0  0  0
 25 26  1  0  0  0
M  END
> <minimizedAffinity>
-7.89696

> <CNNscore>
0.3667423427

> <CNNaffinity>
7.0026893616

> <CNN_VS>
2.5681827068

> <CNNaffinity_variance>
0.0581064112

$$$$
[H]c1nc(N([H])c2c([H])c([H])c(N3C([H])([H])C([H])([H])N(C([H])([H])[H])C([H])([H])C3([H])[H])c([H])c2OC([H])([H])[H])nc(N([H])c2c([H])c([H])c([H])c([H])c2P(=O)(C([H])([H])[H])C([H])([H])[H])c1Cl


 36 39  0  0  0  0  0  0  0  0999 V2000
   32.8070  -12.7128   37.8727 C   0  0  0  0  0  0  0  0  0  0  0  0
   32.0636  -12.1085   36.9375 N   0  0  0  0  0  0  0  0  0  0  0  0
   30.7864  -11.7545   37.1053 C   0  0  0  0  0  0  0  0  0  0  0  0
   30.2256  -12.0426   38.3290 C   0  0  0  0  0  0  0  0  0  0  0  0
   28.5586  -11.5883   38.5675 Cl  0  0  0  0  0  0  0  0  0  0  0  0
   30.9823  -12.6829   39.3464 C   0  0  0  0  0  0  0  0  0  0  0  0
   32.2303  -12.9893   39.0800 N   0  0  0  0  0  0  0  0  0  0  0  0
   34.1523  -13.0657   37.6432 N   0  0  0  0  0  0  0  0  0  0  0  0
   34.8486  -12.3020   37.9226 H   0  0  0  0  0  0  0  0  0  0  0  0
   36.0749  -14.4505   37.2900 C   0  0  0  0  0  0  0  0  0  0  0  0
   36.6784  -15.5925   36.7955 C   0  0  0  0  0  0  0  0  0  0  0  0
   35.9967  -16.5671   36.1248 C   0  0  0  0  0  0  0  0  0  0  0  0
   34.6335  -16.3595   35.9546 C   0  0  0  0  0  0  0  0  0  0  0  0
   34.0104  -15.2281   36.4395 C   0  0  0  0  0  0  0  0  0  0  0  0
   34.6882  -14.2422   37.1154 C   0  0  0  0  0  0  0  0  0  0  0  0
   36.6426  -17.7157   35.6221 N   0  0  0  0  0  0  0  0  0  0  0  0
   37.4586  -18.5884   36.4447 C   0  0  0  0  0  0  0  0  0  0  0  0
   38.7264  -19.0405   35.7829 C   0  0  0  0  0  0  0  0  0  0  0  0
   38.7157  -19.1089   34.3701 N   0  0  0  0  0  0  0  0  0  0  0  0
   38.5047  -20.4276   33.8325 C   0  0  0  0  0  0  0  0  0  0  0  0
   37.9454  -18.0918   33.6946 C   0  0  0  0  0  0  0  0  0  0  0  0
   36.5059  -18.0953   34.2419 C   0  0  0  0  0  0  0  0  0  0  0  0
   38.1823  -13.3295   37.7817 C   0  0  0  0  0  0  0  0  0  0  0  0
   36.7977  -13.4926   37.9598 O   0  0  0  0  0  0  0  0  0  0  0  0
   30.2972  -12.9199   40.5502 N   0  0  0  0  0  0  0  0  0  0  0  0
   30.4645  -12.2209   41.3138 H   0  0  0  0  0  0  0  0  0  0  0  0
   29.4267  -13.9809   40.8231 C   0  0  0  0  0  0  0  0  0  0  0  0
   29.5319  -15.2618   40.3125 C   0  0  0  0  0  0  0  0  0  0  0  0
   28.6035  -16.2288   40.6559 C   0  0  0  0  0  0  0  0  0  0  0  0
   27.5656  -15.9593   41.4980 C   0  0  0  0  0  0  0  0  0  0  0  0
   27.4661  -14.6702   42.0072 C   0  0  0  0  0  0  0  0  0  0  0  0
   28.3587  -13.6789   41.6980 C   0  0  0  0  0  0  0  0  0  0  0  0
   28.1475  -12.0880   42.3952 P   0  0  0  0  0  0  0  0  0  0  0  0
   28.5951  -11.9621   44.1354 C   0  0  0  0  0  0  0  0  0  0  0  0
   26.3613  -11.6575   42.2907 C   0  0  0  0  0  0  0  0  0  0  0  0
   28.8599  -11.0063   41.6050 O   0  0  0  0  0  0  0  0  0  0  0  0
 23 24  1  0  0  0
 24 10  1  0  0  0
 10 11  2  0  0  0
 11 12  1  0  0  0
 12 13  2  0  0  0
 13 14  1  0  0  0
 14 15  2  0  0  0
 15  8  1  0  0  0
  8  1  1  0  0  0
  1  2  2  0  0  0
  2  3  1  0  0  0
  3  4  2  0  0  0
  4  5  1  0  0  0
  4  6  1  0  0  0
  6 25  1  0  0  0
 25 27  1  0  0  0
 27 28  2  0  0  0
 28 29  1  0  0  0
 29 30  2  0  0  0
 30 31  1  0  0  0
 31 32  2  0  0  0
 32 33  1  0  0  0
 33 34  1  0  0  0
 33 35  1  0  0  0
 33 36  2  0  0  0
  6  7  2  0  0  0
 12 16  1  0  0  0
 16 17  1  0  0  0
 17 18  1  0  0  0
 18 19  1  0  0  0
 19 20  1  0  0  0
 19 21  1  0  0  0
 21 22  1  0  0  0
 15 10  1  0  0  0
  7  1  1  0  0  0
 22 16  1  0  0  0
 32 27  1  0  0  0
  8  9  1  0  0  0
 25 26  1  0  0  0
M  END
> <minimizedAffinity>
-7.93528

> <CNNscore>
0.3385591805

> <CNNaffinity>
6.2913870811

> <CNN_VS>
2.1300067902

> <CNNaffinity_variance>
0.3167471886

$$$$
[H]c1nc(N([H])c2c([H])c([H])c(N3C([H])([H])C([H])([H])N(C([H])([H])[H])C([H])([H])C3([H])[H])c([H])c2OC([H])([H])[H])nc(N([H])c2c([H])c([H])c([H])c([H])c2P(=O)(C([H])([H])[H])C([H])([H])[H])c1Cl


 36 39  0  0  0  0  0  0  0  0999 V2000
   33.5685  -14.0716   36.6962 C   0  0  0  0  0  0  0  0  0  0  0  0
   34.5437  -13.2041   36.3981 N   0  0  0  0  0  0  0  0  0  0  0  0
   34.5405  -11.9172   36.7567 C   0  0  0  0  0  0  0  0  0  0  0  0
   33.4512  -11.4841   37.4784 C   0  0  0  0  0  0  0  0  0  0  0  0
   33.4284   -9.8067   37.9559 Cl  0  0  0  0  0  0  0  0  0  0  0  0
   32.3967  -12.3747   37.8140 C   0  0  0  0  0  0  0  0  0  0  0  0
   32.4967  -13.6204   37.4133 N   0  0  0  0  0  0  0  0  0  0  0  0
   33.6215  -15.4212   36.2922 N   0  0  0  0  0  0  0  0  0  0  0  0
   32.6581  -15.8516   36.1111 H   0  0  0  0  0  0  0  0  0  0  0  0
   34.6113  -17.2578   35.1152 C   0  0  0  0  0  0  0  0  0  0  0  0
   35.6644  -18.1195   34.8678 C   0  0  0  0  0  0  0  0  0  0  0  0
   36.8521  -18.0598   35.5389 C   0  0  0  0  0  0  0  0  0  0  0  0
   36.9631  -17.0701   36.5076 C   0  0  0  0  0  0  0  0  0  0  0  0
   35.9257  -16.1995   36.7711 C   0  0  0  0  0  0  0  0  0  0  0  0
   34.7272  -16.2522   36.1010 C   0  0  0  0  0  0  0  0  0  0  0  0
   37.9039  -18.9606   35.2718 N   0  0  0  0  0  0  0  0  0  0  0  0
   39.0757  -19.0820   36.1181 C   0  0  0  0  0  0  0  0  0  0  0  0
   40.3645  -19.2077   35.3611 C   0  0  0  0  0  0  0  0  0  0  0  0
   40.2892  -19.7807   34.0701 N   0  0  0  0  0  0  0  0  0  0  0  0
   40.6478  -21.1736   34.0075 C   0  0  0  0  0  0  0  0  0  0  0  0
   39.1043  -19.4661   33.3077 C   0  0  0  0  0  0  0  0  0  0  0  0
   37.8559  -19.8346   34.1309 C   0  0  0  0  0  0  0  0  0  0  0  0
   32.6551  -18.5235   34.4002 C   0  0  0  0  0  0  0  0  0  0  0  0
   33.4313  -17.3518   34.4169 O   0  0  0  0  0  0  0  0  0  0  0  0
   31.3433  -11.8120   38.5546 N   0  0  0  0  0  0  0  0  0  0  0  0
   31.1181  -10.8113   38.3366 H   0  0  0  0  0  0  0  0  0  0  0  0
   30.5780  -12.4485   39.5380 C   0  0  0  0  0  0  0  0  0  0  0  0
   31.0357  -13.4127   40.4174 C   0  0  0  0  0  0  0  0  0  0  0  0
   30.1782  -13.9727   41.3480 C   0  0  0  0  0  0  0  0  0  0  0  0
   28.8692  -13.6005   41.4318 C   0  0  0  0  0  0  0  0  0  0  0  0
   28.4161  -12.6313   40.5451 C   0  0  0  0  0  0  0  0  0  0  0  0
   29.2246  -12.0474   39.6068 C   0  0  0  0  0  0  0  0  0  0  0  0
   28.5580  -10.8327   38.5382 P   0  0  0  0  0  0  0  0  0  0  0  0
   28.8940   -9.1320   39.0274 C   0  0  0  0  0  0  0  0  0  0  0  0
   26.7271  -11.0179   38.5441 C   0  0  0  0  0  0  0  0  0  0  0  0
   28.9698  -11.0392   37.0925 O   0  0  0  0  0  0  0  0  0  0  0  0
 23 24  1  0  0  0
 24 10  1  0  0  0
 10 11  2  0  0  0
 11 12  1  0  0  0
 12 13  2  0  0  0
 13 14  1  0  0  0
 14 15  2  0  0  0
 15  8  1  0  0  0
  8  1  1  0  0  0
  1  2  2  0  0  0
  2  3  1  0  0  0
  3  4  2  0  0  0
  4  5  1  0  0  0
  4  6  1  0  0  0
  6 25  1  0  0  0
 25 27  1  0  0  0
 27 28  2  0  0  0
 28 29  1  0  0  0
 29 30  2  0  0  0
 30 31  1  0  0  0
 31 32  2  0  0  0
 32 33  1  0  0  0
 33 34  1  0  0  0
 33 35  1  0  0  0
 33 36  2  0  0  0
  6  7  2  0  0  0
 12 16  1  0  0  0
 16 17  1  0  0  0
 17 18  1  0  0  0
 18 19  1  0  0  0
 19 20  1  0  0  0
 19 21  1  0  0  0
 21 22  1  0  0  0
 15 10  1  0  0  0
  7  1  1  0  0  0
 22 16  1  0  0  0
 32 27  1  0  0  0
  8  9  1  0  0  0
 25 26  1  0  0  0
M  END
> <minimizedAffinity>
-8.09216

> <CNNscore>
0.3034165502

> <CNNaffinity>
6.7155380249

> <CNN_VS>
2.0376052856

> <CNNaffinity_variance>
0.0338333659

$$$$
[H]Oc1c([H])c([H])c2c(c1[H])C([H])([H])C([H])([H])[C@]1([H])[C@]2([H])C([H])([H])C([H])([H])[C@]2(C([H])([H])[H])[C@@]([H])(O[H])C([H])([H])C([H])([H])[C@]21[H]


 22 25  0  0  0  0  0  0  0  0999 V2000
   35.3270  -17.6080   37.1749 C   0  0  0  0  0  0  0  0  0  0  0  0
   35.4118  -18.0320   35.7284 C   0  0  0  0  0  0  0  0  0  0  0  0
   34.2485  -17.4742   34.9825 C   0  0  0  0  0  0  0  0  0  0  0  0
   32.9607  -18.1371   35.3508 C   0  0  0  0  0  0  0  0  0  0  0  0
   33.0584  -19.6277   35.3986 C   0  0  0  0  0  0  0  0  0  0  0  0
   34.2255  -20.0621   36.2984 C   0  0  0  0  0  0  0  0  0  0  0  0
   34.1482  -21.5270   36.5363 C   0  0  0  0  0  0  0  0  0  0  0  0
   32.9436  -21.7658   37.4589 C   0  0  0  0  0  0  0  0  0  0  0  0
   31.7262  -21.2709   36.7292 C   0  0  0  0  0  0  0  0  0  0  0  0
   30.5009  -21.8308   37.0255 C   0  0  0  0  0  0  0  0  0  0  0  0
   29.3246  -21.4364   36.4009 C   0  0  0  0  0  0  0  0  0  0  0  0
   28.0949  -22.0250   36.7241 O   0  0  0  0  0  0  0  0  0  0  0  0
   29.4181  -20.4428   35.4510 C   0  0  0  0  0  0  0  0  0  0  0  0
   30.6433  -19.8774   35.1495 C   0  0  0  0  0  0  0  0  0  0  0  0
   31.8079  -20.2723   35.7722 C   0  0  0  0  0  0  0  0  0  0  0  0
   35.4444  -19.5661   35.6229 C   0  0  0  0  0  0  0  0  0  0  0  0
   36.7411  -19.8847   36.2417 C   0  0  0  0  0  0  0  0  0  0  0  0
   37.6475  -18.7620   35.7533 C   0  0  0  0  0  0  0  0  0  0  0  0
   36.7487  -17.6996   35.1651 C   0  0  0  0  0  0  0  0  0  0  0  0
   37.1220  -16.4201   35.5446 O   0  0  0  0  0  0  0  0  0  0  0  0
   28.0951  -22.7454   37.4267 H   0  0  0  0  0  0  0  0  0  0  0  0
   36.3334  -15.8054   35.5028 H   0  0  0  0  0  0  0  0  0  0  0  0
  2  1  1  0  0  0
  2  3  1  0  0  0
  3  4  1  0  0  0
  4  5  1  0  0  0
  5  6  1  0  0  0
  6  7  1  0  0  0
  7  8  1  0  0  0
  8  9  1  0  0  0
  9 10  2  0  0  0
 10 11  1  0  0  0
 11 12  1  0  0  0
 11 13  2  0  0  0
 13 14  1  0  0  0
 14 15  2  0  0  0
  6 16  1  0  0  0
 16 17  1  0  0  0
 17 18  1  0  0  0
 18 19  1  0  0  0
 19 20  1  0  0  0
 16  2  1  0  0  0
 19  2  1  0  0  0
 15  5  1  0  0  0
 15  9  1  0  0  0
 12 21  1  0  0  0
 20 22  1  0  0  0
M  END
> <minimizedAffinity>
-5.46889

> <CNNscore>
0.6595386267

> <CNNaffinity>
4.4452886581

> <CNN_VS>
2.9318394661

> <CNNaffinity_variance>
0.2019553185

$$$$
[H]Oc1c([H])c([H])c2c(c1[H])C([H])([H])C([H])([H])[C@]1([H])[C@]2([H])C([H])([H])C([H])([H])[C@]2(C([H])([H])[H])[C@@]([H])(O[H])C([H])([H])C([H])([H])[C@]21[H]


 22 25  0  0  0  0  0  0  0  0999 V2000
   32.1385  -21.9335   34.0836 C   0  0  0  0  0  0  0  0  0  0  0  0
   32.4510  -21.0168   35.2416 C   0  0  0  0  0  0  0  0  0  0  0  0
   33.1472  -21.7903   36.3084 C   0  0  0  0  0  0  0  0  0  0  0  0
   32.2391  -22.7525   37.0035 C   0  0  0  0  0  0  0  0  0  0  0  0
   30.9220  -22.1535   37.3780 C   0  0  0  0  0  0  0  0  0  0  0  0
   30.2628  -21.4958   36.1559 C   0  0  0  0  0  0  0  0  0  0  0  0
   28.8586  -21.1372   36.4844 C   0  0  0  0  0  0  0  0  0  0  0  0
   28.0741  -22.4539   36.5853 C   0  0  0  0  0  0  0  0  0  0  0  0
   28.7010  -23.2553   37.6916 C   0  0  0  0  0  0  0  0  0  0  0  0
   27.9244  -24.1707   38.3711 C   0  0  0  0  0  0  0  0  0  0  0  0
   28.4192  -24.9531   39.4065 C   0  0  0  0  0  0  0  0  0  0  0  0
   27.6044  -25.8745   40.0775 O   0  0  0  0  0  0  0  0  0  0  0  0
   29.7440  -24.7852   39.7455 C   0  0  0  0  0  0  0  0  0  0  0  0
   30.5279  -23.8694   39.0683 C   0  0  0  0  0  0  0  0  0  0  0  0
   30.0321  -23.0952   38.0414 C   0  0  0  0  0  0  0  0  0  0  0  0
   31.1594  -20.3803   35.7821 C   0  0  0  0  0  0  0  0  0  0  0  0
   30.7482  -19.5267   34.6561 C   0  0  0  0  0  0  0  0  0  0  0  0
   32.0692  -18.9788   34.1313 C   0  0  0  0  0  0  0  0  0  0  0  0
   33.1661  -19.8012   34.7662 C   0  0  0  0  0  0  0  0  0  0  0  0
   34.1559  -20.1525   33.8621 O   0  0  0  0  0  0  0  0  0  0  0  0
   26.6456  -25.9487   39.7812 H   0  0  0  0  0  0  0  0  0  0  0  0
   34.6191  -20.9859   34.1662 H   0  0  0  0  0  0  0  0  0  0  0  0
  2  1  1  0  0  0
  2  3  1  0  0  0
  3  4  1  0  0  0
  4  5  1  0  0  0
  5  6  1  0  0  0
  6  7  1  0  0  0
  7  8  1  0  0  0
  8  9  1  0  0  0
  9 10  2  0  0  0
 10 11  1  0  0  0
 11 12  1  0  0  0
 11 13  2  0  0  0
 13 14  1  0  0  0
 14 15  2  0  0  0
  6 16  1  0  0  0
 16 17  1  0  0  0
 17 18  1  0  0  0
 18 19  1  0  0  0
 19 20  1  0  0  0
 16  2  1  0  0  0
 19  2  1  0  0  0
 15  5  1  0  0  0
 15  9  1  0  0  0
 12 21  1  0  0  0
 20 22  1  0  0  0
M  END
> <minimizedAffinity>
-4.65544

> <CNNscore>
0.6329404712

> <CNNaffinity>
4.0068097115

> <CNN_VS>
2.5360720158

> <CNNaffinity_variance>
0.2835201025

$$$$
[H]Oc1c([H])c([H])c2c(c1[H])C([H])([H])C([H])([H])[C@]1([H])[C@]2([H])C([H])([H])C([H])([H])[C@]2(C([H])([H])[H])[C@@]([H])(O[H])C([H])([H])C([H])([H])[C@]21[H]


 22 25  0  0  0  0  0  0  0  0999 V2000
   29.0056  -22.1875   38.2347 C   0  0  0  0  0  0  0  0  0  0  0  0
   29.7387  -23.1321   37.3131 C   0  0  0  0  0  0  0  0  0  0  0  0
   31.1239  -23.3408   37.8217 C   0  0  0  0  0  0  0  0  0  0  0  0
   31.9835  -22.1296   37.6555 C   0  0  0  0  0  0  0  0  0  0  0  0
   31.8662  -21.5054   36.3026 C   0  0  0  0  0  0  0  0  0  0  0  0
   30.3929  -21.2363   35.9599 C   0  0  0  0  0  0  0  0  0  0  0  0
   30.3151  -20.3921   34.7393 C   0  0  0  0  0  0  0  0  0  0  0  0
   30.7995  -18.9894   35.1358 C   0  0  0  0  0  0  0  0  0  0  0  0
   32.2201  -19.1316   35.6060 C   0  0  0  0  0  0  0  0  0  0  0  0
   33.0687  -18.0501   35.4925 C   0  0  0  0  0  0  0  0  0  0  0  0
   34.3959  -18.0914   35.9000 C   0  0  0  0  0  0  0  0  0  0  0  0
   35.2330  -16.9752   35.7713 O   0  0  0  0  0  0  0  0  0  0  0  0
   34.8541  -19.2752   36.4355 C   0  0  0  0  0  0  0  0  0  0  0  0
   34.0085  -20.3629   36.5522 C   0  0  0  0  0  0  0  0  0  0  0  0
   32.6921  -20.3169   36.1463 C   0  0  0  0  0  0  0  0  0  0  0  0
   29.7606  -22.5712   35.8812 C   0  0  0  0  0  0  0  0  0  0  0  0
   28.3371  -22.6276   35.5120 C   0  0  0  0  0  0  0  0  0  0  0  0
   27.8640  -23.9324   36.1397 C   0  0  0  0  0  0  0  0  0  0  0  0
   28.9448  -24.3727   37.0991 C   0  0  0  0  0  0  0  0  0  0  0  0
   28.4316  -24.8250   38.3043 O   0  0  0  0  0  0  0  0  0  0  0  0
   34.8367  -16.1408   35.3721 H   0  0  0  0  0  0  0  0  0  0  0  0
   29.1135  -24.7203   39.0292 H   0  0  0  0  0  0  0  0  0  0  0  0
  2  1  1  0  0  0
  2  3  1  0  0  0
  3  4  1  0  0  0
  4  5  1  0  0  0
  5  6  1  0  0  0
  6  7  1  0  0  0
  7  8  1  0  0  0
  8  9  1  0  0  0
  9 10  2  0  0  0
 10 11  1  0  0  0
 11 12  1  0  0  0
 11 13  2  0  0  0
 13 14  1  0  0  0
 14 15  2  0  0  0
  6 16  1  0  0  0
 16 17  1  0  0  0
 17 18  1  0  0  0
 18 19  1  0  0  0
 19 20  1  0  0  0
 16  2  1  0  0  0
 19  2  1  0  0  0
 15  5  1  0  0  0
 15  9  1  0  0  0
 12 21  1  0  0  0
 20 22  1  0  0  0
M  END
> <minimizedAffinity>
-4.64231

> <CNNscore>
0.6123380661

> <CNNaffinity>
4.1118025780

> <CNN_VS>
2.5178132057

> <CNNaffinity_variance>
0.1325646937

$$$$
[H]Oc1c([H])c([H])c2c(c1[H])C([H])([H])C([H])([H])[C@]1([H])[C@]2([H])C([H])([H])C([H])([H])[C@]2(C([H])([H])[H])[C@@]([H])(O[H])C([H])([H])C([H])([H])[C@]21[H]


 22 25  0  0  0  0  0  0  0  0999 V2000
   34.3358  -19.8720   33.8950 C   0  0  0  0  0  0  0  0  0  0  0  0
   33.2621  -19.5470   34.9053 C   0  0  0  0  0  0  0  0  0  0  0  0
   32.6502  -18.2307   34.5677 C   0  0  0  0  0  0  0  0  0  0  0  0
   33.5755  -17.0858   34.8257 C   0  0  0  0  0  0  0  0  0  0  0  0
   34.2633  -17.1716   36.1499 C   0  0  0  0  0  0  0  0  0  0  0  0
   34.9511  -18.5359   36.3118 C   0  0  0  0  0  0  0  0  0  0  0  0
   35.8331  -18.5065   37.5075 C   0  0  0  0  0  0  0  0  0  0  0  0
   37.0244  -17.6011   37.1605 C   0  0  0  0  0  0  0  0  0  0  0  0
   36.4678  -16.2365   36.8648 C   0  0  0  0  0  0  0  0  0  0  0  0
   37.2698  -15.1331   37.0703 C   0  0  0  0  0  0  0  0  0  0  0  0
   36.8388  -13.8357   36.8248 C   0  0  0  0  0  0  0  0  0  0  0  0
   37.6779  -12.7352   37.0437 O   0  0  0  0  0  0  0  0  0  0  0  0
   35.5526  -13.6768   36.3574 C   0  0  0  0  0  0  0  0  0  0  0  0
   34.7436  -14.7787   36.1492 C   0  0  0  0  0  0  0  0  0  0  0  0
   35.1760  -16.0643   36.3943 C   0  0  0  0  0  0  0  0  0  0  0  0
   33.8533  -19.5272   36.3250 C   0  0  0  0  0  0  0  0  0  0  0  0
   34.2162  -20.9398   36.5217 C   0  0  0  0  0  0  0  0  0  0  0  0
   33.0727  -21.6915   35.8524 C   0  0  0  0  0  0  0  0  0  0  0  0
   32.3058  -20.6803   35.0327 C   0  0  0  0  0  0  0  0  0  0  0  0
   31.9668  -21.1623   33.7784 O   0  0  0  0  0  0  0  0  0  0  0  0
   38.6061  -12.9196   37.3860 H   0  0  0  0  0  0  0  0  0  0  0  0
   31.8446  -20.4019   33.1395 H   0  0  0  0  0  0  0  0  0  0  0  0
  2  1  1  0  0  0
  2  3  1  0  0  0
  3  4  1  0  0  0
  4  5  1  0  0  0
  5  6  1  0  0  0
  6  7  1  0  0  0
  7  8  1  0  0  0
  8  9  1  0  0  0
  9 10  2  0  0  0
 10 11  1  0  0  0
 11 12  1  0  0  0
 11 13  2  0  0  0
 13 14  1  0  0  0
 14 15  2  0  0  0
  6 16  1  0  0  0
 16 17  1  0  0  0
 17 18  1  0  0  0
 18 19  1  0  0  0
 19 20  1  0  0  0
 16  2  1  0  0  0
 19  2  1  0  0  0
 15  5  1  0  0  0
 15  9  1  0  0  0
 12 21  1  0  0  0
 20 22  1  0  0  0
M  END
> <minimizedAffinity>
-7.14548

> <CNNscore>
0.5878711939

> <CNNaffinity>
4.6618514061

> <CNN_VS>
2.7405681610

> <CNNaffinity_variance>
0.2196165770

$$$$
[H]Oc1c([H])c([H])c2c(c1[H])C([H])([H])C([H])([H])[C@]1([H])[C@]2([H])C([H])([H])C([H])([H])[C@]2(C([H])([H])[H])[C@@]([H])(O[H])C([H])([H])C([H])([H])[C@]21[H]


 22 25  0  0  0  0  0  0  0  0999 V2000
   32.1079  -20.6565   36.9868 C   0  0  0  0  0  0  0  0  0  0  0  0
   33.2948  -21.1182   36.1762 C   0  0  0  0  0  0  0  0  0  0  0  0
   34.5212  -21.0595   37.0208 C   0  0  0  0  0  0  0  0  0  0  0  0
   34.9556  -19.6577   37.3034 C   0  0  0  0  0  0  0  0  0  0  0  0
   34.9489  -18.7836   36.0911 C   0  0  0  0  0  0  0  0  0  0  0  0
   33.5847  -18.8495   35.3874 C   0  0  0  0  0  0  0  0  0  0  0  0
   33.5132  -17.7912   34.3466 C   0  0  0  0  0  0  0  0  0  0  0  0
   33.4143  -16.4471   35.0834 C   0  0  0  0  0  0  0  0  0  0  0  0
   34.6603  -16.3077   35.9125 C   0  0  0  0  0  0  0  0  0  0  0  0
   35.1148  -15.0423   36.2210 C   0  0  0  0  0  0  0  0  0  0  0  0
   36.2563  -14.8191   36.9801 C   0  0  0  0  0  0  0  0  0  0  0  0
   36.6923  -13.5209   37.2765 O   0  0  0  0  0  0  0  0  0  0  0  0
   36.9412  -15.9271   37.4290 C   0  0  0  0  0  0  0  0  0  0  0  0
   36.4909  -17.1981   37.1234 C   0  0  0  0  0  0  0  0  0  0  0  0
   35.3573  -17.4144   36.3696 C   0  0  0  0  0  0  0  0  0  0  0  0
   33.4543  -20.2465   34.9191 C   0  0  0  0  0  0  0  0  0  0  0  0
   32.2474  -20.5961   34.1530 C   0  0  0  0  0  0  0  0  0  0  0  0
   32.0951  -22.0911   34.4024 C   0  0  0  0  0  0  0  0  0  0  0  0
   33.0158  -22.4387   35.5487 C   0  0  0  0  0  0  0  0  0  0  0  0
   32.4205  -23.2878   36.4680 O   0  0  0  0  0  0  0  0  0  0  0  0
   36.1470  -12.7547   36.9185 H   0  0  0  0  0  0  0  0  0  0  0  0
   32.8504  -23.1791   37.3650 H   0  0  0  0  0  0  0  0  0  0  0  0
  2  1  1  0  0  0
  2  3  1  0  0  0
  3  4  1  0  0  0
  4  5  1  0  0  0
  5  6  1  0  0  0
  6  7  1  0  0  0
  7  8  1  0  0  0
  8  9  1  0  0  0
  9 10  2  0  0  0
 10 11  1  0  0  0
 11 12  1  0  0  0
 11 13  2  0  0  0
 13 14  1  0  0  0
 14 15  2  0  0  0
  6 16  1  0  0  0
 16 17  1  0  0  0
 17 18  1  0  0  0
 18 19  1  0  0  0
 19 20  1  0  0  0
 16  2  1  0  0  0
 19  2  1  0  0  0
 15  5  1  0  0  0
 15  9  1  0  0  0
 12 21  1  0  0  0
 20 22  1  0  0  0
M  END
> <minimizedAffinity>
-6.11784

> <CNNscore>
0.5764992833

> <CNNaffinity>
4.4647340775

> <CNN_VS>
2.5739159584

> <CNNaffinity_variance>
0.1738803834

$$$$
[H]Oc1c([H])c([H])c2c(c1[H])C([H])([H])C([H])([H])[C@]1([H])[C@]2([H])C([H])([H])C([H])([H])[C@]2(C([H])([H])[H])[C@@]([H])(O[H])C([H])([H])C([H])([H])[C@]21[H]


 22 25  0  0  0  0  0  0  0  0999 V2000
   30.8878  -21.7673   37.0161 C   0  0  0  0  0  0  0  0  0  0  0  0
   32.1455  -22.5391   36.6976 C   0  0  0  0  0  0  0  0  0  0  0  0
   33.1447  -22.3219   37.7817 C   0  0  0  0  0  0  0  0  0  0  0  0
   33.7059  -20.9368   37.7744 C   0  0  0  0  0  0  0  0  0  0  0  0
   34.1018  -20.4691   36.4112 C   0  0  0  0  0  0  0  0  0  0  0  0
   32.9371  -20.6405   35.4240 C   0  0  0  0  0  0  0  0  0  0  0  0
   33.2591  -19.9414   34.1527 C   0  0  0  0  0  0  0  0  0  0  0  0
   33.1958  -18.4346   34.4441 C   0  0  0  0  0  0  0  0  0  0  0  0
   34.2293  -18.1468   35.4970 C   0  0  0  0  0  0  0  0  0  0  0  0
   34.7839  -16.8852   35.5560 C   0  0  0  0  0  0  0  0  0  0  0  0
   35.7449  -16.5308   36.4942 C   0  0  0  0  0  0  0  0  0  0  0  0
   36.2893  -15.2402   36.5283 O   0  0  0  0  0  0  0  0  0  0  0  0
   36.1398  -17.5011   37.3890 C   0  0  0  0  0  0  0  0  0  0  0  0
   35.5877  -18.7676   37.3353 C   0  0  0  0  0  0  0  0  0  0  0  0
   34.6342  -19.1144   36.4022 C   0  0  0  0  0  0  0  0  0  0  0  0
   32.7112  -22.0997   35.3365 C   0  0  0  0  0  0  0  0  0  0  0  0
   31.6702  -22.5713   34.4093 C   0  0  0  0  0  0  0  0  0  0  0  0
   31.2469  -23.9066   35.0081 C   0  0  0  0  0  0  0  0  0  0  0  0
   31.8237  -23.9621   36.4033 C   0  0  0  0  0  0  0  0  0  0  0  0
   30.9179  -24.4487   37.3324 O   0  0  0  0  0  0  0  0  0  0  0  0
   35.9579  -14.5781   35.8468 H   0  0  0  0  0  0  0  0  0  0  0  0
   31.1456  -24.1083   38.2454 H   0  0  0  0  0  0  0  0  0  0  0  0
  2  1  1  0  0  0
  2  3  1  0  0  0
  3  4  1  0  0  0
  4  5  1  0  0  0
  5  6  1  0  0  0
  6  7  1  0  0  0
  7  8  1  0  0  0
  8  9  1  0  0  0
  9 10  2  0  0  0
 10 11  1  0  0  0
 11 12  1  0  0  0
 11 13  2  0  0  0
 13 14  1  0  0  0
 14 15  2  0  0  0
  6 16  1  0  0  0
 16 17  1  0  0  0
 17 18  1  0  0  0
 18 19  1  0  0  0
 19 20  1  0  0  0
 16  2  1  0  0  0
 19  2  1  0  0  0
 15  5  1  0  0  0
 15  9  1  0  0  0
 12 21  1  0  0  0
 20 22  1  0  0  0
M  END
> <minimizedAffinity>
-5.57433

> <CNNscore>
0.5597444177

> <CNNaffinity>
4.1603078842

> <CNN_VS>
2.3287091255

> <CNNaffinity_variance>
0.1521745920

$$$$
[H]Oc1c([H])c([H])c2c(c1[H])C([H])([H])C([H])([H])[C@]1([H])[C@]2([H])C([H])([H])C([H])([H])[C@]2(C([H])([H])[H])[C@@]([H])(O[H])C([H])([H])C([H])([H])[C@]21[H]


 22 25  0  0  0  0  0  0  0  0999 V2000
   29.4666  -24.2479   35.7419 C   0  0  0  0  0  0  0  0  0  0  0  0
   28.9272  -23.1952   36.6799 C   0  0  0  0  0  0  0  0  0  0  0  0
   28.4777  -22.0145   35.8893 C   0  0  0  0  0  0  0  0  0  0  0  0
   29.6197  -21.2495   35.3027 C   0  0  0  0  0  0  0  0  0  0  0  0
   30.7275  -21.0066   36.2761 C   0  0  0  0  0  0  0  0  0  0  0  0
   31.1715  -22.3259   36.9265 C   0  0  0  0  0  0  0  0  0  0  0  0
   32.4281  -22.1038   37.6881 C   0  0  0  0  0  0  0  0  0  0  0  0
   33.5423  -21.8805   36.6545 C   0  0  0  0  0  0  0  0  0  0  0  0
   33.1674  -20.6602   35.8609 C   0  0  0  0  0  0  0  0  0  0  0  0
   34.1700  -19.9106   35.2817 C   0  0  0  0  0  0  0  0  0  0  0  0
   33.9164  -18.7687   34.5327 C   0  0  0  0  0  0  0  0  0  0  0  0
   34.9574  -18.0285   33.9570 O   0  0  0  0  0  0  0  0  0  0  0  0
   32.5991  -18.3951   34.3799 C   0  0  0  0  0  0  0  0  0  0  0  0
   31.5893  -19.1422   34.9578 C   0  0  0  0  0  0  0  0  0  0  0  0
   31.8462  -20.2747   35.7003 C   0  0  0  0  0  0  0  0  0  0  0  0
   30.0018  -22.7910   37.7033 C   0  0  0  0  0  0  0  0  0  0  0  0
   30.1547  -24.0277   38.4863 C   0  0  0  0  0  0  0  0  0  0  0  0
   28.7297  -24.5563   38.5878 C   0  0  0  0  0  0  0  0  0  0  0  0
   27.9039  -23.7809   37.5882 C   0  0  0  0  0  0  0  0  0  0  0  0
   27.0387  -24.5928   36.8720 O   0  0  0  0  0  0  0  0  0  0  0  0
   35.8974  -18.3550   34.1063 H   0  0  0  0  0  0  0  0  0  0  0  0
   26.8227  -24.1717   35.9904 H   0  0  0  0  0  0  0  0  0  0  0  0
  2  1  1  0  0  0
  2  3  1  0  0  0
  3  4  1  0  0  0
  4  5  1  0  0  0
  5  6  1  0  0  0
  6  7  1  0  0  0
  7  8  1  0  0  0
  8  9  1  0  0  0
  9 10  2  0  0  0
 10 11  1  0  0  0
 11 12  1  0  0  0
 11 13  2  0  0  0
 13 14  1  0  0  0
 14 15  2  0  0  0
  6 16  1  0  0  0
 16 17  1  0  0  0
 17 18  1  0  0  0
 18 19  1  0  0  0
 19 20  1  0  0  0
 16  2  1  0  0  0
 19  2  1  0  0  0
 15  5  1  0  0  0
 15  9  1  0  0  0
 12 21  1  0  0  0
 20 22  1  0  0  0
M  END
> <minimizedAffinity>
-4.53748

> <CNNscore>
0.5563636422

> <CNNaffinity>
4.0761260986

> <CNN_VS>
2.2678084373

> <CNNaffinity_variance>
0.1893720180

$$$$
[H]Oc1c([H])c([H])c2c(c1[H])C([H])([H])C([H])([H])[C@]1([H])[C@]2([H])C([H])([H])C([H])([H])[C@]2(C([H])([H])[H])[C@@]([H])(O[H])C([H])([H])C([H])([H])[C@]21[H]


 22 25  0  0  0  0  0  0  0  0999 V2000
   34.3732  -19.4920   34.2954 C   0  0  0  0  0  0  0  0  0  0  0  0
   33.9679  -18.8689   35.6094 C   0  0  0  0  0  0  0  0  0  0  0  0
   35.1485  -18.1948   36.2199 C   0  0  0  0  0  0  0  0  0  0  0  0
   36.1675  -19.1666   36.7206 C   0  0  0  0  0  0  0  0  0  0  0  0
   35.5731  -20.2912   37.5053 C   0  0  0  0  0  0  0  0  0  0  0  0
   34.4505  -20.9707   36.7062 C   0  0  0  0  0  0  0  0  0  0  0  0
   34.0517  -22.2304   37.3864 C   0  0  0  0  0  0  0  0  0  0  0  0
   35.2078  -23.2240   37.1980 C   0  0  0  0  0  0  0  0  0  0  0  0
   36.4192  -22.6174   37.8489 C   0  0  0  0  0  0  0  0  0  0  0  0
   37.4063  -23.4546   38.3260 C   0  0  0  0  0  0  0  0  0  0  0  0
   38.5583  -22.9823   38.9417 C   0  0  0  0  0  0  0  0  0  0  0  0
   39.5431  -23.8589   39.4159 O   0  0  0  0  0  0  0  0  0  0  0  0
   38.6916  -21.6167   39.0662 C   0  0  0  0  0  0  0  0  0  0  0  0
   37.7059  -20.7721   38.5900 C   0  0  0  0  0  0  0  0  0  0  0  0
   36.5644  -21.2457   37.9797 C   0  0  0  0  0  0  0  0  0  0  0  0
   33.4000  -19.9403   36.5556 C   0  0  0  0  0  0  0  0  0  0  0  0
   32.1610  -20.3296   35.8635 C   0  0  0  0  0  0  0  0  0  0  0  0
   31.6392  -19.0097   35.3104 C   0  0  0  0  0  0  0  0  0  0  0  0
   32.7656  -18.0100   35.4304 C   0  0  0  0  0  0  0  0  0  0  0  0
   32.9029  -17.2273   34.2950 O   0  0  0  0  0  0  0  0  0  0  0  0
   39.3849  -24.8452   39.2939 H   0  0  0  0  0  0  0  0  0  0  0  0
   33.8421  -16.8901   34.2215 H   0  0  0  0  0  0  0  0  0  0  0  0
  2  1  1  0  0  0
  2  3  1  0  0  0
  3  4  1  0  0  0
  4  5  1  0  0  0
  5  6  1  0  0  0
  6  7  1  0  0  0
  7  8  1  0  0  0
  8  9  1  0  0  0
  9 10  2  0  0  0
 10 11  1  0  0  0
 11 12  1  0  0  0
 11 13  2  0  0  0
 13 14  1  0  0  0
 14 15  2  0  0  0
  6 16  1  0  0  0
 16 17  1  0  0  0
 17 18  1  0  0  0
 18 19  1  0  0  0
 19 20  1  0  0  0
 16  2  1  0  0  0
 19  2  1  0  0  0
 15  5  1  0  0  0
 15  9  1  0  0  0
 12 21  1  0  0  0
 20 22  1  0  0  0
M  END
> <minimizedAffinity>
-4.52448

> <CNNscore>
0.5386645794

> <CNNaffinity>
4.1376252174

> <CNN_VS>
2.2287921906

> <CNNaffinity_variance>
0.0916796774

$$$$
[H]Oc1c([H])c([H])c2c(c1[H])C([H])([H])C([H])([H])[C@]1([H])[C@]2([H])C([H])([H])C([H])([H])[C@]2(C([H])([H])[H])[C@@]([H])(O[H])C([H])([H])C([H])([H])[C@]21[H]


 22 25  0  0  0  0  0  0  0  0999 V2000
   36.3824  -17.1192   35.3380 C   0  0  0  0  0  0  0  0  0  0  0  0
   35.5748  -16.9789   36.6057 C   0  0  0  0  0  0  0  0  0  0  0  0
   35.8755  -18.1240   37.5108 C   0  0  0  0  0  0  0  0  0  0  0  0
   35.3112  -19.4139   37.0095 C   0  0  0  0  0  0  0  0  0  0  0  0
   33.8955  -19.2963   36.5451 C   0  0  0  0  0  0  0  0  0  0  0  0
   33.7562  -18.1544   35.5266 C   0  0  0  0  0  0  0  0  0  0  0  0
   32.4140  -18.2185   34.8920 C   0  0  0  0  0  0  0  0  0  0  0  0
   32.4131  -19.4504   33.9745 C   0  0  0  0  0  0  0  0  0  0  0  0
   32.6567  -20.6492   34.8480 C   0  0  0  0  0  0  0  0  0  0  0  0
   32.1728  -21.8757   34.4428 C   0  0  0  0  0  0  0  0  0  0  0  0
   32.3501  -23.0355   35.1862 C   0  0  0  0  0  0  0  0  0  0  0  0
   31.8460  -24.2669   34.7472 O   0  0  0  0  0  0  0  0  0  0  0  0
   33.0420  -22.9240   36.3723 C   0  0  0  0  0  0  0  0  0  0  0  0
   33.5298  -21.6975   36.7841 C   0  0  0  0  0  0  0  0  0  0  0  0
   33.3512  -20.5493   36.0428 C   0  0  0  0  0  0  0  0  0  0  0  0
   34.0732  -16.9204   36.2782 C   0  0  0  0  0  0  0  0  0  0  0  0
   33.9698  -15.6412   35.5580 C   0  0  0  0  0  0  0  0  0  0  0  0
   34.9332  -14.7350   36.3139 C   0  0  0  0  0  0  0  0  0  0  0  0
   35.7685  -15.6284   37.2006 C   0  0  0  0  0  0  0  0  0  0  0  0
   37.1116  -15.2870   37.1825 O   0  0  0  0  0  0  0  0  0  0  0  0
   31.3498  -24.2803   33.8719 H   0  0  0  0  0  0  0  0  0  0  0  0
   37.6717  -16.0825   37.4167 H   0  0  0  0  0  0  0  0  0  0  0  0
  2  1  1  0  0  0
  2  3  1  0  0  0
  3  4  1  0  0  0
  4  5  1  0  0  0
  5  6  1  0  0  0
  6  7  1  0  0  0
  7  8  1  0  0  0
  8  9  1  0  0  0
  9 10  2  0  0  0
 10 11  1  0  0  0
 11 12  1  0  0  0
 11 13  2  0  0  0
 13 14  1  0  0  0
 14 15  2  0  0  0
  6 16  1  0  0  0
 16 17  1  0  0  0
 17 18  1  0  0  0
 18 19  1  0  0  0
 19 20  1  0  0  0
 16  2  1  0  0  0
 19  2  1  0  0  0
 15  5  1  0  0  0
 15  9  1  0  0  0
 12 21  1  0  0  0
 20 22  1  0  0  0
M  END
> <minimizedAffinity>
-6.33527

> <CNNscore>
0.5321826935

> <CNNaffinity>
4.3646154404

> <CNN_VS>
2.3227727413

> <CNNaffinity_variance>
0.3705804944

$$$$
[H]c1nc(N([H])c2c([H])c([H])c(C(F)(F)F)c([H])c2OC([H])([H])[H])nc(N([H])c2c([H])c([H])c([H])c([H])c2P(=O)(C([H])([H])[H])C([H])([H])[H])c1Cl


 33 35  0  0  0  0  0  0  0  0999 V2000
   33.0010  -19.3297   34.5339 C   0  0  0  0  0  0  0  0  0  0  0  0
   31.8024  -18.6676   34.3187 N   0  0  0  0  0  0  0  0  0  0  0  0
   30.6265  -19.2091   34.7420 C   0  0  0  0  0  0  0  0  0  0  0  0
   30.5822  -20.4285   35.3889 C   0  0  0  0  0  0  0  0  0  0  0  0
   29.0931  -21.1382   35.9494 Cl  0  0  0  0  0  0  0  0  0  0  0  0
   31.8068  -21.0761   35.5789 C   0  0  0  0  0  0  0  0  0  0  0  0
   32.9603  -20.5002   35.1435 N   0  0  0  0  0  0  0  0  0  0  0  0
   34.1951  -18.6318   34.1439 N   0  0  0  0  0  0  0  0  0  0  0  0
   34.6649  -18.7358   33.2249 H   0  0  0  0  0  0  0  0  0  0  0  0
   36.0368  -17.7427   35.5390 C   0  0  0  0  0  0  0  0  0  0  0  0
   36.4729  -16.6598   36.3226 C   0  0  0  0  0  0  0  0  0  0  0  0
   35.6339  -15.6195   36.6379 C   0  0  0  0  0  0  0  0  0  0  0  0
   34.3198  -15.6608   36.1554 C   0  0  0  0  0  0  0  0  0  0  0  0
   33.8755  -16.6759   35.4109 C   0  0  0  0  0  0  0  0  0  0  0  0
   34.7477  -17.7441   35.0930 C   0  0  0  0  0  0  0  0  0  0  0  0
   36.0633  -14.4473   37.4311 C   0  0  0  0  0  0  0  0  0  0  0  0
   34.9531  -13.9181   38.0334 F   0  0  0  0  0  0  0  0  0  0  0  0
   36.5775  -13.4495   36.5941 F   0  0  0  0  0  0  0  0  0  0  0  0
   37.0345  -14.7615   38.3353 F   0  0  0  0  0  0  0  0  0  0  0  0
   37.9069  -18.5952   34.2106 C   0  0  0  0  0  0  0  0  0  0  0  0
   36.8961  -18.8089   35.2192 O   0  0  0  0  0  0  0  0  0  0  0  0
   31.8028  -22.2537   36.3436 N   0  0  0  0  0  0  0  0  0  0  0  0
   32.1690  -22.1975   37.3470 H   0  0  0  0  0  0  0  0  0  0  0  0
   31.2956  -23.5036   35.9261 C   0  0  0  0  0  0  0  0  0  0  0  0
   31.4192  -23.8153   34.5236 C   0  0  0  0  0  0  0  0  0  0  0  0
   30.7185  -24.8190   33.9369 C   0  0  0  0  0  0  0  0  0  0  0  0
   29.8409  -25.5987   34.6652 C   0  0  0  0  0  0  0  0  0  0  0  0
   29.6964  -25.3343   36.0323 C   0  0  0  0  0  0  0  0  0  0  0  0
   30.4384  -24.2941   36.6026 C   0  0  0  0  0  0  0  0  0  0  0  0
   30.4248  -24.1352   38.4073 P   0  0  0  0  0  0  0  0  0  0  0  0
   31.9923  -24.9691   38.9254 C   0  0  0  0  0  0  0  0  0  0  0  0
   29.0672  -25.0627   39.1307 C   0  0  0  0  0  0  0  0  0  0  0  0
   30.4170  -22.7165   38.8147 O   0  0  0  0  0  0  0  0  0  0  0  0
 20 21  1  0  0  0
 21 10  1  0  0  0
 10 11  2  0  0  0
 11 12  1  0  0  0
 12 13  2  0  0  0
 13 14  1  0  0  0
 14 15  2  0  0  0
 15  8  1  0  0  0
  8  1  1  0  0  0
  1  2  2  0  0  0
  2  3  1  0  0  0
  3  4  2  0  0  0
  4  5  1  0  0  0
  4  6  1  0  0  0
  6 22  1  0  0  0
 22 24  1  0  0  0
 24 25  2  0  0  0
 25 26  1  0  0  0
 26 27  2  0  0  0
 27 28  1  0  0  0
 28 29  2  0  0  0
 29 30  1  0  0  0
 30 31  1  0  0  0
 30 32  1  0  0  0
 30 33  2  0  0  0
  6  7  2  0  0  0
 12 16  1  0  0  0
 16 17  1  0  0  0
 16 18  1  0  0  0
 16 19  1  0  0  0
 15 10  1  0  0  0
  7  1  1  0  0  0
 29 24  1  0  0  0
  8  9  1  0  0  0
 22 23  1  0  0  0
M  END
> <minimizedAffinity>
-6.73563

> <CNNscore>
0.4048553109

> <CNNaffinity>
5.6729335785

> <CNN_VS>
2.2967174053

> <CNNaffinity_variance>
0.4460814595

$$$$
[H]c1nc(N([H])c2c([H])c([H])c(C(F)(F)F)c([H])c2OC([H])([H])[H])nc(N([H])c2c([H])c([H])c([H])c([H])c2P(=O)(C([H])([H])[H])C([H])([H])[H])c1Cl


 33 35  0  0  0  0  0  0  0  0999 V2000
   33.4641  -17.4465   35.6891 C   0  0  0  0  0  0  0  0  0  0  0  0
   32.3167  -18.2104   35.8347 N   0  0  0  0  0  0  0  0  0  0  0  0
   32.3986  -19.5617   35.9834 C   0  0  0  0  0  0  0  0  0  0  0  0
   33.6142  -20.2173   35.9881 C   0  0  0  0  0  0  0  0  0  0  0  0
   33.7473  -21.9430   36.1868 Cl  0  0  0  0  0  0  0  0  0  0  0  0
   34.7512  -19.4195   35.8264 C   0  0  0  0  0  0  0  0  0  0  0  0
   34.6271  -18.0720   35.6835 N   0  0  0  0  0  0  0  0  0  0  0  0
   33.2815  -16.0219   35.6423 N   0  0  0  0  0  0  0  0  0  0  0  0
   32.3994  -15.5496   35.3687 H   0  0  0  0  0  0  0  0  0  0  0  0
   34.3486  -14.0005   36.5930 C   0  0  0  0  0  0  0  0  0  0  0  0
   35.5469  -13.4457   37.0758 C   0  0  0  0  0  0  0  0  0  0  0  0
   36.7416  -14.1136   36.9652 C   0  0  0  0  0  0  0  0  0  0  0  0
   36.7401  -15.3742   36.3551 C   0  0  0  0  0  0  0  0  0  0  0  0
   35.6192  -15.9267   35.8852 C   0  0  0  0  0  0  0  0  0  0  0  0
   34.3934  -15.2293   36.0025 C   0  0  0  0  0  0  0  0  0  0  0  0
   38.0174  -13.5792   37.4892 C   0  0  0  0  0  0  0  0  0  0  0  0
   37.8342  -13.2765   38.8121 F   0  0  0  0  0  0  0  0  0  0  0  0
   38.3482  -12.3797   36.8471 F   0  0  0  0  0  0  0  0  0  0  0  0
   39.0564  -14.4422   37.3014 F   0  0  0  0  0  0  0  0  0  0  0  0
   33.0459  -12.2023   37.6216 C   0  0  0  0  0  0  0  0  0  0  0  0
   33.1262  -13.3143   36.7043 O   0  0  0  0  0  0  0  0  0  0  0  0
   36.0021  -20.0446   35.9539 N   0  0  0  0  0  0  0  0  0  0  0  0
   36.0320  -21.0107   36.4118 H   0  0  0  0  0  0  0  0  0  0  0  0
   37.2279  -19.5370   35.4709 C   0  0  0  0  0  0  0  0  0  0  0  0
   37.1672  -18.7250   34.2808 C   0  0  0  0  0  0  0  0  0  0  0  0
   38.2682  -18.4320   33.5428 C   0  0  0  0  0  0  0  0  0  0  0  0
   39.5156  -18.9059   33.9011 C   0  0  0  0  0  0  0  0  0  0  0  0
   39.6202  -19.6924   35.0545 C   0  0  0  0  0  0  0  0  0  0  0  0
   38.4638  -19.9698   35.7917 C   0  0  0  0  0  0  0  0  0  0  0  0
   38.6600  -20.7713   37.4045 P   0  0  0  0  0  0  0  0  0  0  0  0
   40.3535  -20.2551   37.9394 C   0  0  0  0  0  0  0  0  0  0  0  0
   38.6779  -22.5602   37.2428 C   0  0  0  0  0  0  0  0  0  0  0  0
   37.6350  -20.3028   38.3578 O   0  0  0  0  0  0  0  0  0  0  0  0
 20 21  1  0  0  0
 21 10  1  0  0  0
 10 11  2  0  0  0
 11 12  1  0  0  0
 12 13  2  0  0  0
 13 14  1  0  0  0
 14 15  2  0  0  0
 15  8  1  0  0  0
  8  1  1  0  0  0
  1  2  2  0  0  0
  2  3  1  0  0  0
  3  4  2  0  0  0
  4  5  1  0  0  0
  4  6  1  0  0  0
  6 22  1  0  0  0
 22 24  1  0  0  0
 24 25  2  0  0  0
 25 26  1  0  0  0
 26 27  2  0  0  0
 27 28  1  0  0  0
 28 29  2  0  0  0
 29 30  1  0  0  0
 30 31  1  0  0  0
 30 32  1  0  0  0
 30 33  2  0  0  0
  6  7  2  0  0  0
 12 16  1  0  0  0
 16 17  1  0  0  0
 16 18  1  0  0  0
 16 19  1  0  0  0
 15 10  1  0  0  0
  7  1  1  0  0  0
 29 24  1  0  0  0
  8  9  1  0  0  0
 22 23  1  0  0  0
M  END
> <minimizedAffinity>
-6.78766

> <CNNscore>
0.2636954784

> <CNNaffinity>
5.7374582291

> <CNN_VS>
1.5129418373

> <CNNaffinity_variance>
0.2901042700

$$$$
[H]c1nc(N([H])c2c([H])c([H])c(C(F)(F)F)c([H])c2OC([H])([H])[H])nc(N([H])c2c([H])c([H])c([H])c([H])c2P(=O)(C([H])([H])[H])C([H])([H])[H])c1Cl


 33 35  0  0  0  0  0  0  0  0999 V2000
   33.2779  -19.3147   34.6879 C   0  0  0  0  0  0  0  0  0  0  0  0
   32.1289  -18.9849   33.9862 N   0  0  0  0  0  0  0  0  0  0  0  0
   30.9282  -19.5286   34.3292 C   0  0  0  0  0  0  0  0  0  0  0  0
   30.8108  -20.4249   35.3734 C   0  0  0  0  0  0  0  0  0  0  0  0
   29.2857  -21.1266   35.8389 Cl  0  0  0  0  0  0  0  0  0  0  0  0
   31.9903  -20.7459   36.0524 C   0  0  0  0  0  0  0  0  0  0  0  0
   33.1701  -20.1787   35.6805 N   0  0  0  0  0  0  0  0  0  0  0  0
   34.4758  -18.6124   34.3180 N   0  0  0  0  0  0  0  0  0  0  0  0
   35.0421  -18.8173   33.4733 H   0  0  0  0  0  0  0  0  0  0  0  0
   36.1656  -17.3331   35.5973 C   0  0  0  0  0  0  0  0  0  0  0  0
   36.4335  -16.1321   36.2775 C   0  0  0  0  0  0  0  0  0  0  0  0
   35.4455  -15.2095   36.5190 C   0  0  0  0  0  0  0  0  0  0  0  0
   34.1509  -15.4938   36.0668 C   0  0  0  0  0  0  0  0  0  0  0  0
   33.8647  -16.6260   35.4198 C   0  0  0  0  0  0  0  0  0  0  0  0
   34.8898  -17.5711   35.1776 C   0  0  0  0  0  0  0  0  0  0  0  0
   35.6929  -13.9207   37.2014 C   0  0  0  0  0  0  0  0  0  0  0  0
   36.8064  -14.0673   37.9850 F   0  0  0  0  0  0  0  0  0  0  0  0
   34.6349  -13.6109   38.0646 F   0  0  0  0  0  0  0  0  0  0  0  0
   35.8188  -12.8854   36.3228 F   0  0  0  0  0  0  0  0  0  0  0  0
   37.8066  -18.2885   34.0536 C   0  0  0  0  0  0  0  0  0  0  0  0
   37.1777  -18.2785   35.3532 O   0  0  0  0  0  0  0  0  0  0  0  0
   31.8782  -21.5548   37.1946 N   0  0  0  0  0  0  0  0  0  0  0  0
   31.2584  -21.2058   37.9934 H   0  0  0  0  0  0  0  0  0  0  0  0
   32.4641  -22.8286   37.3608 C   0  0  0  0  0  0  0  0  0  0  0  0
   33.8385  -22.9669   36.9470 C   0  0  0  0  0  0  0  0  0  0  0  0
   34.4248  -24.1772   36.7630 C   0  0  0  0  0  0  0  0  0  0  0  0
   33.7223  -25.3497   36.9647 C   0  0  0  0  0  0  0  0  0  0  0  0
   32.3866  -25.2605   37.3742 C   0  0  0  0  0  0  0  0  0  0  0  0
   31.8178  -23.9954   37.5574 C   0  0  0  0  0  0  0  0  0  0  0  0
   30.1789  -23.9071   38.3244 P   0  0  0  0  0  0  0  0  0  0  0  0
   30.2343  -25.2317   39.6140 C   0  0  0  0  0  0  0  0  0  0  0  0
   28.8903  -24.3578   37.1569 C   0  0  0  0  0  0  0  0  0  0  0  0
   29.9487  -22.5818   38.9325 O   0  0  0  0  0  0  0  0  0  0  0  0
 20 21  1  0  0  0
 21 10  1  0  0  0
 10 11  2  0  0  0
 11 12  1  0  0  0
 12 13  2  0  0  0
 13 14  1  0  0  0
 14 15  2  0  0  0
 15  8  1  0  0  0
  8  1  1  0  0  0
  1  2  2  0  0  0
  2  3  1  0  0  0
  3  4  2  0  0  0
  4  5  1  0  0  0
  4  6  1  0  0  0
  6 22  1  0  0  0
 22 24  1  0  0  0
 24 25  2  0  0  0
 25 26  1  0  0  0
 26 27  2  0  0  0
 27 28  1  0  0  0
 28 29  2  0  0  0
 29 30  1  0  0  0
 30 31  1  0  0  0
 30 32  1  0  0  0
 30 33  2  0  0  0
  6  7  2  0  0  0
 12 16  1  0  0  0
 16 17  1  0  0  0
 16 18  1  0  0  0
 16 19  1  0  0  0
 15 10  1  0  0  0
  7  1  1  0  0  0
 29 24  1  0  0  0
  8  9  1  0  0  0
 22 23  1  0  0  0
M  END
> <minimizedAffinity>
-6.62763

> <CNNscore>
0.2041781694

> <CNNaffinity>
5.4719161987

> <CNN_VS>
1.1172457933

> <CNNaffinity_variance>
0.4720006585

$$$$
[H]c1nc(N([H])c2c([H])c([H])c(C(F)(F)F)c([H])c2OC([H])([H])[H])nc(N([H])c2c([H])c([H])c([H])c([H])c2P(=O)(C([H])([H])[H])C([H])([H])[H])c1Cl


 33 35  0  0  0  0  0  0  0  0999 V2000
   33.1550  -17.9157   35.3705 C   0  0  0  0  0  0  0  0  0  0  0  0
   32.5555  -18.6931   34.3919 N   0  0  0  0  0  0  0  0  0  0  0  0
   32.5143  -20.0489   34.5135 C   0  0  0  0  0  0  0  0  0  0  0  0
   33.0680  -20.6957   35.6010 C   0  0  0  0  0  0  0  0  0  0  0  0
   33.0198  -22.4274   35.7856 Cl  0  0  0  0  0  0  0  0  0  0  0  0
   33.6759  -19.8838   36.5635 C   0  0  0  0  0  0  0  0  0  0  0  0
   33.6936  -18.5322   36.4065 N   0  0  0  0  0  0  0  0  0  0  0  0
   33.0576  -16.4917   35.2037 N   0  0  0  0  0  0  0  0  0  0  0  0
   32.2436  -16.0014   34.7875 H   0  0  0  0  0  0  0  0  0  0  0  0
   34.1087  -14.4483   36.1246 C   0  0  0  0  0  0  0  0  0  0  0  0
   35.2629  -13.9122   36.7224 C   0  0  0  0  0  0  0  0  0  0  0  0
   36.4185  -14.6454   36.8345 C   0  0  0  0  0  0  0  0  0  0  0  0
   36.4219  -15.9540   36.3358 C   0  0  0  0  0  0  0  0  0  0  0  0
   35.3428  -16.4905   35.7612 C   0  0  0  0  0  0  0  0  0  0  0  0
   34.1573  -15.7258   35.6490 C   0  0  0  0  0  0  0  0  0  0  0  0
   37.6425  -14.1298   37.4855 C   0  0  0  0  0  0  0  0  0  0  0  0
   38.6238  -15.0743   37.3429 F   0  0  0  0  0  0  0  0  0  0  0  0
   37.4375  -13.9714   38.8615 F   0  0  0  0  0  0  0  0  0  0  0  0
   38.0226  -12.9185   36.9878 F   0  0  0  0  0  0  0  0  0  0  0  0
   32.5984  -12.7675   37.0641 C   0  0  0  0  0  0  0  0  0  0  0  0
   32.9268  -13.6954   36.0078 O   0  0  0  0  0  0  0  0  0  0  0  0
   34.1333  -20.5050   37.7368 N   0  0  0  0  0  0  0  0  0  0  0  0
   33.4360  -21.0965   38.2917 H   0  0  0  0  0  0  0  0  0  0  0  0
   35.4589  -20.4717   38.2217 C   0  0  0  0  0  0  0  0  0  0  0  0
   36.4656  -19.9737   37.3173 C   0  0  0  0  0  0  0  0  0  0  0  0
   37.7926  -20.1669   37.5278 C   0  0  0  0  0  0  0  0  0  0  0  0
   38.2474  -20.8607   38.6326 C   0  0  0  0  0  0  0  0  0  0  0  0
   37.3032  -21.3552   39.5402 C   0  0  0  0  0  0  0  0  0  0  0  0
   35.9443  -21.1327   39.2917 C   0  0  0  0  0  0  0  0  0  0  0  0
   34.7640  -21.5587   40.5985 P   0  0  0  0  0  0  0  0  0  0  0  0
   35.7568  -21.3866   42.1493 C   0  0  0  0  0  0  0  0  0  0  0  0
   34.2581  -23.2783   40.4813 C   0  0  0  0  0  0  0  0  0  0  0  0
   33.6143  -20.6328   40.5971 O   0  0  0  0  0  0  0  0  0  0  0  0
 20 21  1  0  0  0
 21 10  1  0  0  0
 10 11  2  0  0  0
 11 12  1  0  0  0
 12 13  2  0  0  0
 13 14  1  0  0  0
 14 15  2  0  0  0
 15  8  1  0  0  0
  8  1  1  0  0  0
  1  2  2  0  0  0
  2  3  1  0  0  0
  3  4  2  0  0  0
  4  5  1  0  0  0
  4  6  1  0  0  0
  6 22  1  0  0  0
 22 24  1  0  0  0
 24 25  2  0  0  0
 25 26  1  0  0  0
 26 27  2  0  0  0
 27 28  1  0  0  0
 28 29  2  0  0  0
 29 30  1  0  0  0
 30 31  1  0  0  0
 30 32  1  0  0  0
 30 33  2  0  0  0
  6  7  2  0  0  0
 12 16  1  0  0  0
 16 17  1  0  0  0
 16 18  1  0  0  0
 16 19  1  0  0  0
 15 10  1  0  0  0
  7  1  1  0  0  0
 29 24  1  0  0  0
  8  9  1  0  0  0
 22 23  1  0  0  0
M  END
> <minimizedAffinity>
-6.29690

> <CNNscore>
0.2016108185

> <CNNaffinity>
5.6050581932

> <CNN_VS>
1.1300404072

> <CNNaffinity_variance>
0.1923586726

$$$$
[H]c1nc(N([H])c2c([H])c([H])c(C(F)(F)F)c([H])c2OC([H])([H])[H])nc(N([H])c2c([H])c([H])c([H])c([H])c2P(=O)(C([H])([H])[H])C([H])([H])[H])c1Cl


 33 35  0  0  0  0  0  0  0  0999 V2000
   32.0665  -18.9020   35.6536 C   0  0  0  0  0  0  0  0  0  0  0  0
   30.7978  -19.0762   35.1231 N   0  0  0  0  0  0  0  0  0  0  0  0
   30.0795  -20.1996   35.4007 C   0  0  0  0  0  0  0  0  0  0  0  0
   30.5841  -21.2010   36.2070 C   0  0  0  0  0  0  0  0  0  0  0  0
   29.6822  -22.6426   36.5859 Cl  0  0  0  0  0  0  0  0  0  0  0  0
   31.8710  -21.0001   36.7156 C   0  0  0  0  0  0  0  0  0  0  0  0
   32.5551  -19.8623   36.4169 N   0  0  0  0  0  0  0  0  0  0  0  0
   32.7023  -17.6410   35.3878 N   0  0  0  0  0  0  0  0  0  0  0  0
   32.2297  -16.7193   35.4443 H   0  0  0  0  0  0  0  0  0  0  0  0
   35.0698  -16.9463   35.5901 C   0  0  0  0  0  0  0  0  0  0  0  0
   36.3993  -17.2662   35.2632 C   0  0  0  0  0  0  0  0  0  0  0  0
   36.6985  -18.2954   34.4046 C   0  0  0  0  0  0  0  0  0  0  0  0
   35.6383  -19.0282   33.8566 C   0  0  0  0  0  0  0  0  0  0  0  0
   34.3656  -18.7476   34.1461 C   0  0  0  0  0  0  0  0  0  0  0  0
   34.0679  -17.6838   35.0306 C   0  0  0  0  0  0  0  0  0  0  0  0
   38.0836  -18.6843   34.0613 C   0  0  0  0  0  0  0  0  0  0  0  0
   38.5308  -17.8304   33.0886 F   0  0  0  0  0  0  0  0  0  0  0  0
   38.1098  -19.9698   33.5072 F   0  0  0  0  0  0  0  0  0  0  0  0
   38.9040  -18.6930   35.1506 F   0  0  0  0  0  0  0  0  0  0  0  0
   35.8563  -15.1809   37.0912 C   0  0  0  0  0  0  0  0  0  0  0  0
   34.7646  -15.8903   36.4672 O   0  0  0  0  0  0  0  0  0  0  0  0
   32.3554  -21.9421   37.6374 N   0  0  0  0  0  0  0  0  0  0  0  0
   31.7917  -22.0986   38.5328 H   0  0  0  0  0  0  0  0  0  0  0  0
   33.4958  -22.7554   37.4595 C   0  0  0  0  0  0  0  0  0  0  0  0
   33.3392  -23.9119   36.6126 C   0  0  0  0  0  0  0  0  0  0  0  0
   34.2374  -24.9294   36.5970 C   0  0  0  0  0  0  0  0  0  0  0  0
   35.3586  -24.9055   37.4040 C   0  0  0  0  0  0  0  0  0  0  0  0
   35.5529  -23.7970   38.2367 C   0  0  0  0  0  0  0  0  0  0  0  0
   34.6074  -22.7657   38.2224 C   0  0  0  0  0  0  0  0  0  0  0  0
   35.0060  -21.2394   39.1133 P   0  0  0  0  0  0  0  0  0  0  0  0
   35.6652  -20.1276   37.7905 C   0  0  0  0  0  0  0  0  0  0  0  0
   36.3341  -21.5042   40.2933 C   0  0  0  0  0  0  0  0  0  0  0  0
   33.8015  -20.6624   39.7420 O   0  0  0  0  0  0  0  0  0  0  0  0
 20 21  1  0  0  0
 21 10  1  0  0  0
 10 11  2  0  0  0
 11 12  1  0  0  0
 12 13  2  0  0  0
 13 14  1  0  0  0
 14 15  2  0  0  0
 15  8  1  0  0  0
  8  1  1  0  0  0
  1  2  2  0  0  0
  2  3  1  0  0  0
  3  4  2  0  0  0
  4  5  1  0  0  0
  4  6  1  0  0  0
  6 22  1  0  0  0
 22 24  1  0  0  0
 24 25  2  0  0  0
 25 26  1  0  0  0
 26 27  2  0  0  0
 27 28  1  0  0  0
 28 29  2  0  0  0
 29 30  1  0  0  0
 30 31  1  0  0  0
 30 32  1  0  0  0
 30 33  2  0  0  0
  6  7  2  0  0  0
 12 16  1  0  0  0
 16 17  1  0  0  0
 16 18  1  0  0  0
 16 19  1  0  0  0
 15 10  1  0  0  0
  7  1  1  0  0  0
 29 24  1  0  0  0
  8  9  1  0  0  0
 22 23  1  0  0  0
M  END
> <minimizedAffinity>
-6.34897

> <CNNscore>
0.1886028349

> <CNNaffinity>
5.2836356163

> <CNN_VS>
0.9965086579

> <CNNaffinity_variance>
0.9881164432

$$$$
[H]c1nc(N([H])c2c([H])c([H])c(C(F)(F)F)c([H])c2OC([H])([H])[H])nc(N([H])c2c([H])c([H])c([H])c([H])c2P(=O)(C([H])([H])[H])C([H])([H])[H])c1Cl


 33 35  0  0  0  0  0  0  0  0999 V2000
   36.9733  -17.7443   36.2743 C   0  0  0  0  0  0  0  0  0  0  0  0
   36.0166  -18.1729   37.1812 N   0  0  0  0  0  0  0  0  0  0  0  0
   36.1968  -19.3247   37.8853 C   0  0  0  0  0  0  0  0  0  0  0  0
   37.3239  -20.1056   37.7202 C   0  0  0  0  0  0  0  0  0  0  0  0
   37.5835  -21.5774   38.6156 Cl  0  0  0  0  0  0  0  0  0  0  0  0
   38.2633  -19.6520   36.7890 C   0  0  0  0  0  0  0  0  0  0  0  0
   38.0474  -18.4941   36.1075 N   0  0  0  0  0  0  0  0  0  0  0  0
   36.7419  -16.4673   35.6573 N   0  0  0  0  0  0  0  0  0  0  0  0
   37.1618  -16.1620   34.7593 H   0  0  0  0  0  0  0  0  0  0  0  0
   36.2439  -14.6271   37.2367 C   0  0  0  0  0  0  0  0  0  0  0  0
   35.2782  -13.6961   37.6578 C   0  0  0  0  0  0  0  0  0  0  0  0
   33.9905  -13.7344   37.1822 C   0  0  0  0  0  0  0  0  0  0  0  0
   33.6569  -14.7317   36.2573 C   0  0  0  0  0  0  0  0  0  0  0  0
   34.5509  -15.6310   35.8397 C   0  0  0  0  0  0  0  0  0  0  0  0
   35.8749  -15.5840   36.3373 C   0  0  0  0  0  0  0  0  0  0  0  0
   32.9548  -12.7541   37.5748 C   0  0  0  0  0  0  0  0  0  0  0  0
   33.5686  -11.5429   37.7523 F   0  0  0  0  0  0  0  0  0  0  0  0
   32.3924  -13.1015   38.8091 F   0  0  0  0  0  0  0  0  0  0  0  0
   31.9381  -12.6841   36.6688 F   0  0  0  0  0  0  0  0  0  0  0  0
   38.3188  -13.3707   37.5605 C   0  0  0  0  0  0  0  0  0  0  0  0
   37.5615  -14.5887   37.7266 O   0  0  0  0  0  0  0  0  0  0  0  0
   39.4727  -20.3591   36.6949 N   0  0  0  0  0  0  0  0  0  0  0  0
   39.4948  -21.2278   36.0712 H   0  0  0  0  0  0  0  0  0  0  0  0
   40.6914  -19.9886   37.3042 C   0  0  0  0  0  0  0  0  0  0  0  0
   40.7624  -20.1180   38.7386 C   0  0  0  0  0  0  0  0  0  0  0  0
   41.7353  -19.5240   39.4756 C   0  0  0  0  0  0  0  0  0  0  0  0
   42.7157  -18.7555   38.8782 C   0  0  0  0  0  0  0  0  0  0  0  0
   42.6879  -18.6099   37.4861 C   0  0  0  0  0  0  0  0  0  0  0  0
   41.6719  -19.2406   36.7597 C   0  0  0  0  0  0  0  0  0  0  0  0
   41.8014  -19.2459   34.9527 P   0  0  0  0  0  0  0  0  0  0  0  0
   42.2149  -21.0042   34.5552 C   0  0  0  0  0  0  0  0  0  0  0  0
   43.1812  -18.2386   34.3975 C   0  0  0  0  0  0  0  0  0  0  0  0
   40.5252  -18.8452   34.3284 O   0  0  0  0  0  0  0  0  0  0  0  0
 20 21  1  0  0  0
 21 10  1  0  0  0
 10 11  2  0  0  0
 11 12  1  0  0  0
 12 13  2  0  0  0
 13 14  1  0  0  0
 14 15  2  0  0  0
 15  8  1  0  0  0
  8  1  1  0  0  0
  1  2  2  0  0  0
  2  3  1  0  0  0
  3  4  2  0  0  0
  4  5  1  0  0  0
  4  6  1  0  0  0
  6 22  1  0  0  0
 22 24  1  0  0  0
 24 25  2  0  0  0
 25 26  1  0  0  0
 26 27  2  0  0  0
 27 28  1  0  0  0
 28 29  2  0  0  0
 29 30  1  0  0  0
 30 31  1  0  0  0
 30 32  1  0  0  0
 30 33  2  0  0  0
  6  7  2  0  0  0
 12 16  1  0  0  0
 16 17  1  0  0  0
 16 18  1  0  0  0
 16 19  1  0  0  0
 15 10  1  0  0  0
  7  1  1  0  0  0
 29 24  1  0  0  0
  8  9  1  0  0  0
 22 23  1  0  0  0
M  END
> <minimizedAffinity>
-7.82665

> <CNNscore>
0.1571654379

> <CNNaffinity>
5.6091375351

> <CNN_VS>
0.8815625310

> <CNNaffinity_variance>
0.4176805019

$$$$
[H]c1nc(N([H])c2c([H])c([H])c(C(F)(F)F)c([H])c2OC([H])([H])[H])nc(N([H])c2c([H])c([H])c([H])c([H])c2P(=O)(C([H])([H])[H])C([H])([H])[H])c1Cl


 33 35  0  0  0  0  0  0  0  0999 V2000
   35.5417  -17.7296   35.4368 C   0  0  0  0  0  0  0  0  0  0  0  0
   35.5300  -18.0328   34.0842 N   0  0  0  0  0  0  0  0  0  0  0  0
   34.7518  -19.0440   33.6080 C   0  0  0  0  0  0  0  0  0  0  0  0
   33.9580  -19.8029   34.4455 C   0  0  0  0  0  0  0  0  0  0  0  0
   32.9460  -21.0949   33.8606 Cl  0  0  0  0  0  0  0  0  0  0  0  0
   34.0023  -19.4798   35.8052 C   0  0  0  0  0  0  0  0  0  0  0  0
   34.7909  -18.4600   36.2409 N   0  0  0  0  0  0  0  0  0  0  0  0
   36.3135  -16.5822   35.8275 N   0  0  0  0  0  0  0  0  0  0  0  0
   37.3326  -16.4748   35.6663 H   0  0  0  0  0  0  0  0  0  0  0  0
   36.1601  -14.5692   37.2603 C   0  0  0  0  0  0  0  0  0  0  0  0
   35.3518  -13.4858   37.6472 C   0  0  0  0  0  0  0  0  0  0  0  0
   34.0420  -13.3896   37.2459 C   0  0  0  0  0  0  0  0  0  0  0  0
   33.5236  -14.4052   36.4329 C   0  0  0  0  0  0  0  0  0  0  0  0
   34.2652  -15.4474   36.0504 C   0  0  0  0  0  0  0  0  0  0  0  0
   35.6134  -15.5380   36.4709 C   0  0  0  0  0  0  0  0  0  0  0  0
   33.1691  -12.2505   37.6038 C   0  0  0  0  0  0  0  0  0  0  0  0
   32.8073  -12.3947   38.9167 F   0  0  0  0  0  0  0  0  0  0  0  0
   31.9851  -12.2854   36.8571 F   0  0  0  0  0  0  0  0  0  0  0  0
   33.7651  -11.0470   37.3671 F   0  0  0  0  0  0  0  0  0  0  0  0
   38.3032  -13.4681   37.6886 C   0  0  0  0  0  0  0  0  0  0  0  0
   37.5004  -14.6681   37.6742 O   0  0  0  0  0  0  0  0  0  0  0  0
   33.1115  -20.1513   36.6579 N   0  0  0  0  0  0  0  0  0  0  0  0
   33.4162  -20.3114   37.6706 H   0  0  0  0  0  0  0  0  0  0  0  0
   31.8117  -20.5827   36.3143 C   0  0  0  0  0  0  0  0  0  0  0  0
   30.9882  -19.6433   35.5942 C   0  0  0  0  0  0  0  0  0  0  0  0
   29.6454  -19.7982   35.4706 C   0  0  0  0  0  0  0  0  0  0  0  0
   28.9952  -20.8771   36.0381 C   0  0  0  0  0  0  0  0  0  0  0  0
   29.7588  -21.8173   36.7402 C   0  0  0  0  0  0  0  0  0  0  0  0
   31.1410  -21.6260   36.8428 C   0  0  0  0  0  0  0  0  0  0  0  0
   32.1334  -22.9751   37.5337 P   0  0  0  0  0  0  0  0  0  0  0  0
   32.9138  -22.2148   39.0282 C   0  0  0  0  0  0  0  0  0  0  0  0
   33.4637  -23.4392   36.4194 C   0  0  0  0  0  0  0  0  0  0  0  0
   31.2828  -24.1235   37.9035 O   0  0  0  0  0  0  0  0  0  0  0  0
 20 21  1  0  0  0
 21 10  1  0  0  0
 10 11  2  0  0  0
 11 12  1  0  0  0
 12 13  2  0  0  0
 13 14  1  0  0  0
 14 15  2  0  0  0
 15  8  1  0  0  0
  8  1  1  0  0  0
  1  2  2  0  0  0
  2  3  1  0  0  0
  3  4  2  0  0  0
  4  5  1  0  0  0
  4  6  1  0  0  0
  6 22  1  0  0  0
 22 24  1  0  0  0
 24 25  2  0  0  0
 25 26  1  0  0  0
 26 27  2  0  0  0
 27 28  1  0  0  0
 28 29  2  0  0  0
 29 30  1  0  0  0
 30 31  1  0  0  0
 30 32  1  0  0  0
 30 33  2  0  0  0
  6  7  2  0  0  0
 12 16  1  0  0  0
 16 17  1  0  0  0
 16 18  1  0  0  0
 16 19  1  0  0  0
 15 10  1  0  0  0
  7  1  1  0  0  0
 29 24  1  0  0  0
  8  9  1  0  0  0
 22 23  1  0  0  0
M  END
> <minimizedAffinity>
-7.63593

> <CNNscore>
0.1565503180

> <CNNaffinity>
5.6703596115

> <CNN_VS>
0.8876966238

> <CNNaffinity_variance>
0.2220681608

$$$$
[H]c1nc(N([H])c2c([H])c([H])c(C(F)(F)F)c([H])c2OC([H])([H])[H])nc(N([H])c2c([H])c([H])c([H])c([H])c2P(=O)(C([H])([H])[H])C([H])([H])[H])c1Cl


 33 35  0  0  0  0  0  0  0  0999 V2000
   32.1877  -18.9502   35.7551 C   0  0  0  0  0  0  0  0  0  0  0  0
   30.9322  -19.1914   35.2194 N   0  0  0  0  0  0  0  0  0  0  0  0
   30.2476  -20.3238   35.5419 C   0  0  0  0  0  0  0  0  0  0  0  0
   30.7745  -21.2688   36.4005 C   0  0  0  0  0  0  0  0  0  0  0  0
   29.9156  -22.7202   36.8373 Cl  0  0  0  0  0  0  0  0  0  0  0  0
   32.0475  -21.0014   36.9133 C   0  0  0  0  0  0  0  0  0  0  0  0
   32.6977  -19.8567   36.5686 N   0  0  0  0  0  0  0  0  0  0  0  0
   32.7851  -17.6827   35.4368 N   0  0  0  0  0  0  0  0  0  0  0  0
   32.2906  -16.7716   35.4764 H   0  0  0  0  0  0  0  0  0  0  0  0
   35.1525  -16.9815   35.6170 C   0  0  0  0  0  0  0  0  0  0  0  0
   36.4765  -17.2798   35.2499 C   0  0  0  0  0  0  0  0  0  0  0  0
   36.7632  -18.2722   34.3451 C   0  0  0  0  0  0  0  0  0  0  0  0
   35.6957  -18.9895   33.7907 C   0  0  0  0  0  0  0  0  0  0  0  0
   34.4279  -18.7286   34.1176 C   0  0  0  0  0  0  0  0  0  0  0  0
   34.1431  -17.7026   35.0498 C   0  0  0  0  0  0  0  0  0  0  0  0
   38.1428  -18.6385   33.9578 C   0  0  0  0  0  0  0  0  0  0  0  0
   38.5382  -17.7892   32.9589 F   0  0  0  0  0  0  0  0  0  0  0  0
   38.1753  -19.9307   33.4195 F   0  0  0  0  0  0  0  0  0  0  0  0
   39.0012  -18.6163   35.0171 F   0  0  0  0  0  0  0  0  0  0  0  0
   35.9592  -15.2272   37.1205 C   0  0  0  0  0  0  0  0  0  0  0  0
   34.8601  -15.9631   36.5416 O   0  0  0  0  0  0  0  0  0  0  0  0
   32.5508  -21.8822   37.8841 N   0  0  0  0  0  0  0  0  0  0  0  0
   31.8734  -22.5895   38.3142 H   0  0  0  0  0  0  0  0  0  0  0  0
   33.8969  -21.9627   38.3026 C   0  0  0  0  0  0  0  0  0  0  0  0
   34.4150  -20.8330   39.0337 C   0  0  0  0  0  0  0  0  0  0  0  0
   35.7446  -20.6387   39.2265 C   0  0  0  0  0  0  0  0  0  0  0  0
   36.6768  -21.5254   38.7231 C   0  0  0  0  0  0  0  0  0  0  0  0
   36.2158  -22.6403   38.0130 C   0  0  0  0  0  0  0  0  0  0  0  0
   34.8378  -22.8091   37.8381 C   0  0  0  0  0  0  0  0  0  0  0  0
   34.2589  -24.3774   37.1401 P   0  0  0  0  0  0  0  0  0  0  0  0
   33.6280  -25.2988   38.6144 C   0  0  0  0  0  0  0  0  0  0  0  0
   35.6232  -25.3303   36.4638 C   0  0  0  0  0  0  0  0  0  0  0  0
   33.1848  -24.1540   36.1525 O   0  0  0  0  0  0  0  0  0  0  0  0
 20 21  1  0  0  0
 21 10  1  0  0  0
 10 11  2  0  0  0
 11 12  1  0  0  0
 12 13  2  0  0  0
 13 14  1  0  0  0
 14 15  2  0  0  0
 15  8  1  0  0  0
  8  1  1  0  0  0
  1  2  2  0  0  0
  2  3  1  0  0  0
  3  4  2  0  0  0
  4  5  1  0  0  0
  4  6  1  0  0  0
  6 22  1  0  0  0
 22 24  1  0  0  0
 24 25  2  0  0  0
 25 26  1  0  0  0
 26 27  2  0  0  0
 27 28  1  0  0  0
 28 29  2  0  0  0
 29 30  1  0  0  0
 30 31  1  0  0  0
 30 32  1  0  0  0
 30 33  2  0  0  0
  6  7  2  0  0  0
 12 16  1  0  0  0
 16 17  1  0  0  0
 16 18  1  0  0  0
 16 19  1  0  0  0
 15 10  1  0  0  0
  7  1  1  0  0  0
 29 24  1  0  0  0
  8  9  1  0  0  0
 22 23  1  0  0  0
M  END
> <minimizedAffinity>
-6.12795

> <CNNscore>
0.1560328752

> <CNNaffinity>
5.1010026932

> <CNN_VS>
0.7959241271

> <CNNaffinity_variance>
0.8853918314

$$$$
[H]c1nc(N([H])c2c([H])c([H])c(C(F)(F)F)c([H])c2OC([H])([H])[H])nc(N([H])c2c([H])c([H])c([H])c([H])c2P(=O)(C([H])([H])[H])C([H])([H])[H])c1Cl


 33 35  0  0  0  0  0  0  0  0999 V2000
   33.1253  -19.2977   34.9011 C   0  0  0  0  0  0  0  0  0  0  0  0
   31.8326  -19.2345   34.4047 N   0  0  0  0  0  0  0  0  0  0  0  0
   30.8401  -19.9835   34.9605 C   0  0  0  0  0  0  0  0  0  0  0  0
   31.0814  -20.8310   36.0240 C   0  0  0  0  0  0  0  0  0  0  0  0
   29.8280  -21.7918   36.7596 Cl  0  0  0  0  0  0  0  0  0  0  0  0
   32.3979  -20.8808   36.4926 C   0  0  0  0  0  0  0  0  0  0  0  0
   33.3606  -20.1143   35.9117 N   0  0  0  0  0  0  0  0  0  0  0  0
   34.0787  -18.3952   34.3167 N   0  0  0  0  0  0  0  0  0  0  0  0
   34.3935  -18.4291   33.3288 H   0  0  0  0  0  0  0  0  0  0  0  0
   35.9197  -17.2418   35.5037 C   0  0  0  0  0  0  0  0  0  0  0  0
   36.3009  -16.0725   36.1850 C   0  0  0  0  0  0  0  0  0  0  0  0
   35.3863  -15.0998   36.5064 C   0  0  0  0  0  0  0  0  0  0  0  0
   34.0508  -15.2999   36.1354 C   0  0  0  0  0  0  0  0  0  0  0  0
   33.6576  -16.4002   35.4896 C   0  0  0  0  0  0  0  0  0  0  0  0
   34.6076  -17.3975   35.1647 C   0  0  0  0  0  0  0  0  0  0  0  0
   35.7524  -13.8418   37.1926 C   0  0  0  0  0  0  0  0  0  0  0  0
   36.0880  -12.9228   36.2344 F   0  0  0  0  0  0  0  0  0  0  0  0
   36.8923  -14.0278   37.9842 F   0  0  0  0  0  0  0  0  0  0  0  0
   34.7585  -13.3891   38.0091 F   0  0  0  0  0  0  0  0  0  0  0  0
   37.5949  -18.1074   33.9438 C   0  0  0  0  0  0  0  0  0  0  0  0
   36.8567  -18.2385   35.1777 O   0  0  0  0  0  0  0  0  0  0  0  0
   32.6432  -21.6366   37.6503 N   0  0  0  0  0  0  0  0  0  0  0  0
   31.8164  -22.1488   38.0954 H   0  0  0  0  0  0  0  0  0  0  0  0
   33.9057  -21.8357   38.2502 C   0  0  0  0  0  0  0  0  0  0  0  0
   34.4355  -20.7380   39.0207 C   0  0  0  0  0  0  0  0  0  0  0  0
   35.7402  -20.6703   39.3889 C   0  0  0  0  0  0  0  0  0  0  0  0
   36.6348  -21.6625   39.0366 C   0  0  0  0  0  0  0  0  0  0  0  0
   36.1600  -22.7503   38.2943 C   0  0  0  0  0  0  0  0  0  0  0  0
   34.8078  -22.7873   37.9367 C   0  0  0  0  0  0  0  0  0  0  0  0
   34.1684  -24.3140   37.2001 P   0  0  0  0  0  0  0  0  0  0  0  0
   33.4098  -25.2004   38.6351 C   0  0  0  0  0  0  0  0  0  0  0  0
   35.5032  -25.3468   36.5849 C   0  0  0  0  0  0  0  0  0  0  0  0
   33.1603  -24.0205   36.1626 O   0  0  0  0  0  0  0  0  0  0  0  0
 20 21  1  0  0  0
 21 10  1  0  0  0
 10 11  2  0  0  0
 11 12  1  0  0  0
 12 13  2  0  0  0
 13 14  1  0  0  0
 14 15  2  0  0  0
 15  8  1  0  0  0
  8  1  1  0  0  0
  1  2  2  0  0  0
  2  3  1  0  0  0
  3  4  2  0  0  0
  4  5  1  0  0  0
  4  6  1  0  0  0
  6 22  1  0  0  0
 22 24  1  0  0  0
 24 25  2  0  0  0
 25 26  1  0  0  0
 26 27  2  0  0  0
 27 28  1  0  0  0
 28 29  2  0  0  0
 29 30  1  0  0  0
 30 31  1  0  0  0
 30 32  1  0  0  0
 30 33  2  0  0  0
  6  7  2  0  0  0
 12 16  1  0  0  0
 16 17  1  0  0  0
 16 18  1  0  0  0
 16 19  1  0  0  0
 15 10  1  0  0  0
  7  1  1  0  0  0
 29 24  1  0  0  0
  8  9  1  0  0  0
 22 23  1  0  0  0
M  END
> <minimizedAffinity>
-6.38727

> <CNNscore>
0.1558045596

> <CNNaffinity>
5.3384881020

> <CNN_VS>
0.8317607641

> <CNNaffinity_variance>
0.6002562642

$$$$
