[H]c1c(-c2nc3c([H])c(OC([H])([H])C([H])([H])C([H])([H])N4C([H])([H])C([H])([H])C([H])([H])C4([H])[H])c(OC([H])([H])[H])c([H])c3c(N([H])C([H])([H])C3([H])C([H])([H])C([H])([H])N(C([H])([H])[H])C([H])([H])C3([H])[H])c2[H])oc(C([H])([H])[H])c1[H]


 37 41  0  0  0  0  0  0  0  0999 V2000
   36.1102  -13.9495   36.6328 C   0  0  0  0  0  0  0  0  0  0  0  0
   36.5538  -15.1889   36.2389 C   0  0  0  0  0  0  0  0  0  0  0  0
   35.6872  -16.2201   35.9320 C   0  0  0  0  0  0  0  0  0  0  0  0
   36.1397  -17.4587   35.5350 C   0  0  0  0  0  0  0  0  0  0  0  0
   35.1552  -18.4147   35.2523 C   0  0  0  0  0  0  0  0  0  0  0  0
   33.8073  -18.1309   35.3659 C   0  0  0  0  0  0  0  0  0  0  0  0
   33.4399  -16.9054   35.7568 N   0  0  0  0  0  0  0  0  0  0  0  0
   34.3286  -15.9380   36.0439 C   0  0  0  0  0  0  0  0  0  0  0  0
   33.8732  -14.6854   36.4425 C   0  0  0  0  0  0  0  0  0  0  0  0
   34.7360  -13.6622   36.7455 C   0  0  0  0  0  0  0  0  0  0  0  0
   32.8043  -19.1441   35.0664 C   0  0  0  0  0  0  0  0  0  0  0  0
   32.9065  -20.1551   34.1330 C   0  0  0  0  0  0  0  0  0  0  0  0
   31.7476  -20.8666   34.1836 C   0  0  0  0  0  0  0  0  0  0  0  0
   30.9548  -20.2826   35.1444 C   0  0  0  0  0  0  0  0  0  0  0  0
   29.6017  -20.7674   35.5019 C   0  0  0  0  0  0  0  0  0  0  0  0
   31.6264  -19.2674   35.6368 O   0  0  0  0  0  0  0  0  0  0  0  0
   38.3346  -13.2081   37.4103 C   0  0  0  0  0  0  0  0  0  0  0  0
   37.0506  -12.9674   36.9224 O   0  0  0  0  0  0  0  0  0  0  0  0
   37.5137  -17.7437   35.3603 N   0  0  0  0  0  0  0  0  0  0  0  0
   38.1782  -17.2872   36.0543 H   0  0  0  0  0  0  0  0  0  0  0  0
   38.1033  -18.5674   34.3469 C   0  0  0  0  0  0  0  0  0  0  0  0
   39.2755  -19.3963   34.7744 C   0  0  0  0  0  0  0  0  0  0  0  0
   39.1954  -20.8631   34.5398 C   0  0  0  0  0  0  0  0  0  0  0  0
   40.5874  -21.4161   34.8622 C   0  0  0  0  0  0  0  0  0  0  0  0
   41.5283  -21.0507   33.8238 N   0  0  0  0  0  0  0  0  0  0  0  0
   41.7157  -22.1219   32.8630 C   0  0  0  0  0  0  0  0  0  0  0  0
   41.0958  -19.8859   33.0926 C   0  0  0  0  0  0  0  0  0  0  0  0
   40.5034  -18.8837   34.0237 C   0  0  0  0  0  0  0  0  0  0  0  0
   34.4094  -12.4099   37.1360 O   0  0  0  0  0  0  0  0  0  0  0  0
   33.5314  -11.8881   38.0453 C   0  0  0  0  0  0  0  0  0  0  0  0
   32.4313  -11.0687   37.4474 C   0  0  0  0  0  0  0  0  0  0  0  0
   31.1087  -11.8427   37.4313 C   0  0  0  0  0  0  0  0  0  0  0  0
   30.0036  -10.8754   37.3511 N   0  0  0  0  0  0  0  0  0  0  0  0
   28.8553  -11.4696   37.9574 C   0  0  0  0  0  0  0  0  0  0  0  0
   28.2025  -10.4905   38.8799 C   0  0  0  0  0  0  0  0  0  0  0  0
   29.0879   -9.2740   38.8170 C   0  0  0  0  0  0  0  0  0  0  0  0
   30.2998   -9.6480   38.0209 C   0  0  0  0  0  0  0  0  0  0  0  0
 17 18  1  0  0  0
 18  1  1  0  0  0
  1  2  2  0  0  0
  2  3  1  0  0  0
  3  4  2  0  0  0
  4 19  1  0  0  0
 19 21  1  0  0  0
 21 22  1  0  0  0
 22 23  1  0  0  0
 23 24  1  0  0  0
 24 25  1  0  0  0
 25 26  1  0  0  0
 25 27  1  0  0  0
 27 28  1  0  0  0
  4  5  1  0  0  0
  5  6  2  0  0  0
  6  7  1  0  0  0
  7  8  2  0  0  0
  8  9  1  0  0  0
  9 10  2  0  0  0
 10 29  1  0  0  0
 29 30  1  0  0  0
 30 31  1  0  0  0
 31 32  1  0  0  0
 32 33  1  0  0  0
 33 34  1  0  0  0
 34 35  1  0  0  0
 35 36  1  0  0  0
 36 37  1  0  0  0
  6 11  1  0  0  0
 11 12  2  0  0  0
 12 13  1  0  0  0
 13 14  2  0  0  0
 14 15  1  0  0  0
 14 16  1  0  0  0
 10  1  1  0  0  0
 37 33  1  0  0  0
 16 11  1  0  0  0
  8  3  1  0  0  0
 28 22  1  0  0  0
 19 20  1  0  0  0
M  END
> <minimizedAffinity>
-8.50818

> <CNNscore>
0.8391250372

> <CNNaffinity>
7.2823295593

> <CNN_VS>
6.1107850075

> <CNNaffinity_variance>
0.0637743920

$$$$
[H]c1c(-c2nc3c([H])c(OC([H])([H])C([H])([H])C([H])([H])N4C([H])([H])C([H])([H])C([H])([H])C4([H])[H])c(OC([H])([H])[H])c([H])c3c(N([H])C([H])([H])C3([H])C([H])([H])C([H])([H])N(C([H])([H])[H])C([H])([H])C3([H])[H])c2[H])oc(C([H])([H])[H])c1[H]


 37 41  0  0  0  0  0  0  0  0999 V2000
   36.0387  -13.9497   36.6760 C   0  0  0  0  0  0  0  0  0  0  0  0
   36.5058  -15.2264   36.4761 C   0  0  0  0  0  0  0  0  0  0  0  0
   35.6687  -16.2764   36.1515 C   0  0  0  0  0  0  0  0  0  0  0  0
   36.1451  -17.5528   35.9497 C   0  0  0  0  0  0  0  0  0  0  0  0
   35.1896  -18.5245   35.6244 C   0  0  0  0  0  0  0  0  0  0  0  0
   33.8461  -18.2197   35.5129 C   0  0  0  0  0  0  0  0  0  0  0  0
   33.4546  -16.9577   35.7224 N   0  0  0  0  0  0  0  0  0  0  0  0
   34.3149  -15.9734   36.0370 C   0  0  0  0  0  0  0  0  0  0  0  0
   33.8357  -14.6830   36.2385 C   0  0  0  0  0  0  0  0  0  0  0  0
   34.6694  -13.6413   36.5595 C   0  0  0  0  0  0  0  0  0  0  0  0
   32.8735  -19.2499   35.1741 C   0  0  0  0  0  0  0  0  0  0  0  0
   32.9847  -20.1913   34.1714 C   0  0  0  0  0  0  0  0  0  0  0  0
   31.8559  -20.9505   34.2067 C   0  0  0  0  0  0  0  0  0  0  0  0
   31.0720  -20.4644   35.2275 C   0  0  0  0  0  0  0  0  0  0  0  0
   29.7503  -21.0259   35.5899 C   0  0  0  0  0  0  0  0  0  0  0  0
   31.7197  -19.4583   35.7684 O   0  0  0  0  0  0  0  0  0  0  0  0
   38.2694  -13.1691   37.3948 C   0  0  0  0  0  0  0  0  0  0  0  0
   36.9501  -12.9510   36.9991 O   0  0  0  0  0  0  0  0  0  0  0  0
   37.5231  -17.8653   36.0049 N   0  0  0  0  0  0  0  0  0  0  0  0
   38.1593  -17.2882   35.3774 H   0  0  0  0  0  0  0  0  0  0  0  0
   38.1480  -18.8785   36.8024 C   0  0  0  0  0  0  0  0  0  0  0  0
   39.3242  -19.5688   36.1829 C   0  0  0  0  0  0  0  0  0  0  0  0
   39.6822  -19.1886   34.7899 C   0  0  0  0  0  0  0  0  0  0  0  0
   41.0224  -19.8721   34.4998 C   0  0  0  0  0  0  0  0  0  0  0  0
   42.0917  -19.2114   35.2189 N   0  0  0  0  0  0  0  0  0  0  0  0
   42.8002  -18.2617   34.3812 C   0  0  0  0  0  0  0  0  0  0  0  0
   41.6018  -18.4917   36.3680 C   0  0  0  0  0  0  0  0  0  0  0  0
   40.5431  -19.2823   37.0583 C   0  0  0  0  0  0  0  0  0  0  0  0
   34.3189  -12.3531   36.7718 O   0  0  0  0  0  0  0  0  0  0  0  0
   33.6770  -11.6883   37.7798 C   0  0  0  0  0  0  0  0  0  0  0  0
   32.3078  -12.2049   38.0918 C   0  0  0  0  0  0  0  0  0  0  0  0
   31.2335  -11.4317   37.3195 C   0  0  0  0  0  0  0  0  0  0  0  0
   29.9141  -11.9507   37.7104 N   0  0  0  0  0  0  0  0  0  0  0  0
   30.0217  -12.4695   39.0366 C   0  0  0  0  0  0  0  0  0  0  0  0
   28.8713  -11.9933   39.8645 C   0  0  0  0  0  0  0  0  0  0  0  0
   28.0909  -11.0999   38.9368 C   0  0  0  0  0  0  0  0  0  0  0  0
   28.8999  -10.9439   37.6863 C   0  0  0  0  0  0  0  0  0  0  0  0
 17 18  1  0  0  0
 18  1  1  0  0  0
  1  2  2  0  0  0
  2  3  1  0  0  0
  3  4  2  0  0  0
  4 19  1  0  0  0
 19 21  1  0  0  0
 21 22  1  0  0  0
 22 23  1  0  0  0
 23 24  1  0  0  0
 24 25  1  0  0  0
 25 26  1  0  0  0
 25 27  1  0  0  0
 27 28  1  0  0  0
  4  5  1  0  0  0
  5  6  2  0  0  0
  6  7  1  0  0  0
  7  8  2  0  0  0
  8  9  1  0  0  0
  9 10  2  0  0  0
 10 29  1  0  0  0
 29 30  1  0  0  0
 30 31  1  0  0  0
 31 32  1  0  0  0
 32 33  1  0  0  0
 33 34  1  0  0  0
 34 35  1  0  0  0
 35 36  1  0  0  0
 36 37  1  0  0  0
  6 11  1  0  0  0
 11 12  2  0  0  0
 12 13  1  0  0  0
 13 14  2  0  0  0
 14 15  1  0  0  0
 14 16  1  0  0  0
 10  1  1  0  0  0
 37 33  1  0  0  0
 16 11  1  0  0  0
  8  3  1  0  0  0
 28 22  1  0  0  0
 19 20  1  0  0  0
M  END
> <minimizedAffinity>
-8.55867

> <CNNscore>
0.6706827879

> <CNNaffinity>
7.1970076561

> <CNN_VS>
4.8269090652

> <CNNaffinity_variance>
0.0890509039

$$$$
[H]c1c(-c2nc3c([H])c(OC([H])([H])C([H])([H])C([H])([H])N4C([H])([H])C([H])([H])C([H])([H])C4([H])[H])c(OC([H])([H])[H])c([H])c3c(N([H])C([H])([H])C3([H])C([H])([H])C([H])([H])N(C([H])([H])[H])C([H])([H])C3([H])[H])c2[H])oc(C([H])([H])[H])c1[H]


 37 41  0  0  0  0  0  0  0  0999 V2000
   36.1037  -13.8886   36.7027 C   0  0  0  0  0  0  0  0  0  0  0  0
   36.5499  -15.1554   36.4125 C   0  0  0  0  0  0  0  0  0  0  0  0
   35.6882  -16.1858   36.0894 C   0  0  0  0  0  0  0  0  0  0  0  0
   36.1436  -17.4521   35.7968 C   0  0  0  0  0  0  0  0  0  0  0  0
   35.1642  -18.4039   35.4841 C   0  0  0  0  0  0  0  0  0  0  0  0
   33.8182  -18.0900   35.4706 C   0  0  0  0  0  0  0  0  0  0  0  0
   33.4479  -16.8386   35.7649 N   0  0  0  0  0  0  0  0  0  0  0  0
   34.3318  -15.8734   36.0734 C   0  0  0  0  0  0  0  0  0  0  0  0
   33.8736  -14.5930   36.3665 C   0  0  0  0  0  0  0  0  0  0  0  0
   34.7317  -13.5707   36.6859 C   0  0  0  0  0  0  0  0  0  0  0  0
   32.8205  -19.0995   35.1427 C   0  0  0  0  0  0  0  0  0  0  0  0
   32.9301  -20.0868   34.1851 C   0  0  0  0  0  0  0  0  0  0  0  0
   31.7740  -20.8040   34.2139 C   0  0  0  0  0  0  0  0  0  0  0  0
   30.9754  -20.2470   35.1858 C   0  0  0  0  0  0  0  0  0  0  0  0
   29.6231  -20.7459   35.5263 C   0  0  0  0  0  0  0  0  0  0  0  0
   31.6411  -19.2415   35.7055 O   0  0  0  0  0  0  0  0  0  0  0  0
   38.3367  -13.1568   37.4643 C   0  0  0  0  0  0  0  0  0  0  0  0
   37.0392  -12.9096   37.0172 O   0  0  0  0  0  0  0  0  0  0  0  0
   37.5205  -17.7711   35.7518 N   0  0  0  0  0  0  0  0  0  0  0  0
   38.1474  -17.2341   36.4227 H   0  0  0  0  0  0  0  0  0  0  0  0
   38.1586  -18.7263   34.8954 C   0  0  0  0  0  0  0  0  0  0  0  0
   39.2109  -19.5802   35.5337 C   0  0  0  0  0  0  0  0  0  0  0  0
   39.8866  -19.0393   36.7437 C   0  0  0  0  0  0  0  0  0  0  0  0
   40.7347  -20.1880   37.2992 C   0  0  0  0  0  0  0  0  0  0  0  0
   39.8879  -21.1882   37.9153 N   0  0  0  0  0  0  0  0  0  0  0  0
   39.8129  -21.0205   39.3547 C   0  0  0  0  0  0  0  0  0  0  0  0
   38.5407  -21.1400   37.4044 C   0  0  0  0  0  0  0  0  0  0  0  0
   38.5558  -20.9013   35.9330 C   0  0  0  0  0  0  0  0  0  0  0  0
   34.4026  -12.2934   36.9817 O   0  0  0  0  0  0  0  0  0  0  0  0
   33.6666  -11.6973   37.9682 C   0  0  0  0  0  0  0  0  0  0  0  0
   32.3704  -11.1089   37.5072 C   0  0  0  0  0  0  0  0  0  0  0  0
   31.2463  -12.1499   37.5377 C   0  0  0  0  0  0  0  0  0  0  0  0
   29.9563  -11.4439   37.5100 N   0  0  0  0  0  0  0  0  0  0  0  0
   29.0969  -12.0620   38.4684 C   0  0  0  0  0  0  0  0  0  0  0  0
   28.4159  -11.0156   39.2913 C   0  0  0  0  0  0  0  0  0  0  0  0
   28.9805   -9.7162   38.7807 C   0  0  0  0  0  0  0  0  0  0  0  0
   30.0841  -10.0562   37.8274 C   0  0  0  0  0  0  0  0  0  0  0  0
 17 18  1  0  0  0
 18  1  1  0  0  0
  1  2  2  0  0  0
  2  3  1  0  0  0
  3  4  2  0  0  0
  4 19  1  0  0  0
 19 21  1  0  0  0
 21 22  1  0  0  0
 22 23  1  0  0  0
 23 24  1  0  0  0
 24 25  1  0  0  0
 25 26  1  0  0  0
 25 27  1  0  0  0
 27 28  1  0  0  0
  4  5  1  0  0  0
  5  6  2  0  0  0
  6  7  1  0  0  0
  7  8  2  0  0  0
  8  9  1  0  0  0
  9 10  2  0  0  0
 10 29  1  0  0  0
 29 30  1  0  0  0
 30 31  1  0  0  0
 31 32  1  0  0  0
 32 33  1  0  0  0
 33 34  1  0  0  0
 34 35  1  0  0  0
 35 36  1  0  0  0
 36 37  1  0  0  0
  6 11  1  0  0  0
 11 12  2  0  0  0
 12 13  1  0  0  0
 13 14  2  0  0  0
 14 15  1  0  0  0
 14 16  1  0  0  0
 10  1  1  0  0  0
 37 33  1  0  0  0
 16 11  1  0  0  0
  8  3  1  0  0  0
 28 22  1  0  0  0
 19 20  1  0  0  0
M  END
> <minimizedAffinity>
-8.22353

> <CNNscore>
0.6637224555

> <CNNaffinity>
7.2528014183

> <CNN_VS>
4.8138470650

> <CNNaffinity_variance>
0.0550963171

$$$$
[H]c1c(-c2nc3c([H])c(OC([H])([H])C([H])([H])C([H])([H])N4C([H])([H])C([H])([H])C([H])([H])C4([H])[H])c(OC([H])([H])[H])c([H])c3c(N([H])C([H])([H])C3([H])C([H])([H])C([H])([H])N(C([H])([H])[H])C([H])([H])C3([H])[H])c2[H])oc(C([H])([H])[H])c1[H]


 37 41  0  0  0  0  0  0  0  0999 V2000
   32.6292  -20.3560   34.2323 C   0  0  0  0  0  0  0  0  0  0  0  0
   33.9699  -20.0725   34.1314 C   0  0  0  0  0  0  0  0  0  0  0  0
   34.5160  -18.9020   34.6214 C   0  0  0  0  0  0  0  0  0  0  0  0
   35.8615  -18.6266   34.5191 C   0  0  0  0  0  0  0  0  0  0  0  0
   36.2848  -17.4048   35.0585 C   0  0  0  0  0  0  0  0  0  0  0  0
   35.4025  -16.5261   35.6584 C   0  0  0  0  0  0  0  0  0  0  0  0
   34.1084  -16.8595   35.7228 N   0  0  0  0  0  0  0  0  0  0  0  0
   33.6309  -18.0148   35.2276 C   0  0  0  0  0  0  0  0  0  0  0  0
   32.2725  -18.2958   35.3325 C   0  0  0  0  0  0  0  0  0  0  0  0
   31.7326  -19.4599   34.8461 C   0  0  0  0  0  0  0  0  0  0  0  0
   35.8693  -15.2615   36.2107 C   0  0  0  0  0  0  0  0  0  0  0  0
   35.1518  -14.0865   36.3020 C   0  0  0  0  0  0  0  0  0  0  0  0
   35.9670  -13.1622   36.8789 C   0  0  0  0  0  0  0  0  0  0  0  0
   37.1686  -13.7828   37.1317 C   0  0  0  0  0  0  0  0  0  0  0  0
   38.3282  -13.1079   37.7588 C   0  0  0  0  0  0  0  0  0  0  0  0
   37.0587  -15.0240   36.7176 O   0  0  0  0  0  0  0  0  0  0  0  0
   31.9891  -22.7324   34.4445 C   0  0  0  0  0  0  0  0  0  0  0  0
   32.1625  -21.5581   33.7128 O   0  0  0  0  0  0  0  0  0  0  0  0
   36.7822  -19.5420   33.9590 N   0  0  0  0  0  0  0  0  0  0  0  0
   36.5939  -19.8404   32.9555 H   0  0  0  0  0  0  0  0  0  0  0  0
   37.9282  -20.1161   34.5996 C   0  0  0  0  0  0  0  0  0  0  0  0
   39.2447  -19.4722   34.2897 C   0  0  0  0  0  0  0  0  0  0  0  0
   40.0800  -19.0388   35.4420 C   0  0  0  0  0  0  0  0  0  0  0  0
   41.4316  -18.6277   34.8491 C   0  0  0  0  0  0  0  0  0  0  0  0
   42.1757  -19.7974   34.4305 N   0  0  0  0  0  0  0  0  0  0  0  0
   43.1421  -20.2099   35.4312 C   0  0  0  0  0  0  0  0  0  0  0  0
   41.3103  -20.9223   34.1769 C   0  0  0  0  0  0  0  0  0  0  0  0
   40.0705  -20.4722   33.4822 C   0  0  0  0  0  0  0  0  0  0  0  0
   30.4362  -19.8399   34.8962 O   0  0  0  0  0  0  0  0  0  0  0  0
   29.5194  -19.9889   35.8999 C   0  0  0  0  0  0  0  0  0  0  0  0
   28.8917  -21.3452   35.9720 C   0  0  0  0  0  0  0  0  0  0  0  0
   29.4843  -22.1707   37.1191 C   0  0  0  0  0  0  0  0  0  0  0  0
   28.6475  -23.3643   37.3150 N   0  0  0  0  0  0  0  0  0  0  0  0
   27.6246  -23.3518   36.3185 C   0  0  0  0  0  0  0  0  0  0  0  0
   27.5044  -24.7056   35.6952 C   0  0  0  0  0  0  0  0  0  0  0  0
   28.5795  -25.5197   36.3655 C   0  0  0  0  0  0  0  0  0  0  0  0
   29.3911  -24.5797   37.2021 C   0  0  0  0  0  0  0  0  0  0  0  0
 17 18  1  0  0  0
 18  1  1  0  0  0
  1  2  2  0  0  0
  2  3  1  0  0  0
  3  4  2  0  0  0
  4 19  1  0  0  0
 19 21  1  0  0  0
 21 22  1  0  0  0
 22 23  1  0  0  0
 23 24  1  0  0  0
 24 25  1  0  0  0
 25 26  1  0  0  0
 25 27  1  0  0  0
 27 28  1  0  0  0
  4  5  1  0  0  0
  5  6  2  0  0  0
  6  7  1  0  0  0
  7  8  2  0  0  0
  8  9  1  0  0  0
  9 10  2  0  0  0
 10 29  1  0  0  0
 29 30  1  0  0  0
 30 31  1  0  0  0
 31 32  1  0  0  0
 32 33  1  0  0  0
 33 34  1  0  0  0
 34 35  1  0  0  0
 35 36  1  0  0  0
 36 37  1  0  0  0
  6 11  1  0  0  0
 11 12  2  0  0  0
 12 13  1  0  0  0
 13 14  2  0  0  0
 14 15  1  0  0  0
 14 16  1  0  0  0
 10  1  1  0  0  0
 37 33  1  0  0  0
 16 11  1  0  0  0
  8  3  1  0  0  0
 28 22  1  0  0  0
 19 20  1  0  0  0
M  END
> <minimizedAffinity>
-6.96886

> <CNNscore>
0.5691900253

> <CNNaffinity>
6.4615583420

> <CNN_VS>
3.6778545380

> <CNNaffinity_variance>
0.1016730219

$$$$
[H]c1c(-c2nc3c([H])c(OC([H])([H])C([H])([H])C([H])([H])N4C([H])([H])C([H])([H])C([H])([H])C4([H])[H])c(OC([H])([H])[H])c([H])c3c(N([H])C([H])([H])C3([H])C([H])([H])C([H])([H])N(C([H])([H])[H])C([H])([H])C3([H])[H])c2[H])oc(C([H])([H])[H])c1[H]


 37 41  0  0  0  0  0  0  0  0999 V2000
   38.5236  -21.7526   36.4147 C   0  0  0  0  0  0  0  0  0  0  0  0
   37.3153  -21.1944   36.0733 C   0  0  0  0  0  0  0  0  0  0  0  0
   37.0562  -19.8457   36.2236 C   0  0  0  0  0  0  0  0  0  0  0  0
   35.8435  -19.2933   35.8762 C   0  0  0  0  0  0  0  0  0  0  0  0
   35.7128  -17.9130   36.0781 C   0  0  0  0  0  0  0  0  0  0  0  0
   36.7418  -17.1498   36.5967 C   0  0  0  0  0  0  0  0  0  0  0  0
   37.8933  -17.7537   36.9117 N   0  0  0  0  0  0  0  0  0  0  0  0
   38.0905  -19.0732   36.7444 C   0  0  0  0  0  0  0  0  0  0  0  0
   39.3159  -19.6324   37.0924 C   0  0  0  0  0  0  0  0  0  0  0  0
   39.5714  -20.9722   36.9408 C   0  0  0  0  0  0  0  0  0  0  0  0
   36.5789  -15.7161   36.7973 C   0  0  0  0  0  0  0  0  0  0  0  0
   37.3212  -14.9113   37.6369 C   0  0  0  0  0  0  0  0  0  0  0  0
   36.8340  -13.6466   37.5148 C   0  0  0  0  0  0  0  0  0  0  0  0
   35.8033  -13.6951   36.6048 C   0  0  0  0  0  0  0  0  0  0  0  0
   35.0093  -12.5137   36.1960 C   0  0  0  0  0  0  0  0  0  0  0  0
   35.6930  -14.9426   36.2100 O   0  0  0  0  0  0  0  0  0  0  0  0
   38.9538  -23.7350   35.0052 C   0  0  0  0  0  0  0  0  0  0  0  0
   38.7008  -23.1190   36.2304 O   0  0  0  0  0  0  0  0  0  0  0  0
   34.8037  -20.0531   35.2922 N   0  0  0  0  0  0  0  0  0  0  0  0
   34.7533  -21.0760   35.5798 H   0  0  0  0  0  0  0  0  0  0  0  0
   33.8243  -19.5974   34.3508 C   0  0  0  0  0  0  0  0  0  0  0  0
   32.4832  -19.2451   34.9175 C   0  0  0  0  0  0  0  0  0  0  0  0
   31.2880  -19.5694   34.0933 C   0  0  0  0  0  0  0  0  0  0  0  0
   30.0752  -19.3091   34.9926 C   0  0  0  0  0  0  0  0  0  0  0  0
   29.9658  -20.3404   36.0032 N   0  0  0  0  0  0  0  0  0  0  0  0
   29.0158  -21.3698   35.6244 C   0  0  0  0  0  0  0  0  0  0  0  0
   31.2300  -20.9889   36.2481 C   0  0  0  0  0  0  0  0  0  0  0  0
   32.3327  -19.9857   36.2452 C   0  0  0  0  0  0  0  0  0  0  0  0
   40.7193  -21.6213   37.2380 O   0  0  0  0  0  0  0  0  0  0  0  0
   41.9980  -21.5763   36.7555 C   0  0  0  0  0  0  0  0  0  0  0  0
   42.0972  -21.4897   35.2649 C   0  0  0  0  0  0  0  0  0  0  0  0
   42.5775  -20.1040   34.8203 C   0  0  0  0  0  0  0  0  0  0  0  0
   41.7467  -19.6636   33.6893 N   0  0  0  0  0  0  0  0  0  0  0  0
   40.7377  -20.6513   33.4749 C   0  0  0  0  0  0  0  0  0  0  0  0
   39.4079  -19.9907   33.2992 C   0  0  0  0  0  0  0  0  0  0  0  0
   39.6953  -18.5235   33.4796 C   0  0  0  0  0  0  0  0  0  0  0  0
   41.1186  -18.4023   33.9290 C   0  0  0  0  0  0  0  0  0  0  0  0
 17 18  1  0  0  0
 18  1  1  0  0  0
  1  2  2  0  0  0
  2  3  1  0  0  0
  3  4  2  0  0  0
  4 19  1  0  0  0
 19 21  1  0  0  0
 21 22  1  0  0  0
 22 23  1  0  0  0
 23 24  1  0  0  0
 24 25  1  0  0  0
 25 26  1  0  0  0
 25 27  1  0  0  0
 27 28  1  0  0  0
  4  5  1  0  0  0
  5  6  2  0  0  0
  6  7  1  0  0  0
  7  8  2  0  0  0
  8  9  1  0  0  0
  9 10  2  0  0  0
 10 29  1  0  0  0
 29 30  1  0  0  0
 30 31  1  0  0  0
 31 32  1  0  0  0
 32 33  1  0  0  0
 33 34  1  0  0  0
 34 35  1  0  0  0
 35 36  1  0  0  0
 36 37  1  0  0  0
  6 11  1  0  0  0
 11 12  2  0  0  0
 12 13  1  0  0  0
 13 14  2  0  0  0
 14 15  1  0  0  0
 14 16  1  0  0  0
 10  1  1  0  0  0
 37 33  1  0  0  0
 16 11  1  0  0  0
  8  3  1  0  0  0
 28 22  1  0  0  0
 19 20  1  0  0  0
M  END
> <minimizedAffinity>
-6.48144

> <CNNscore>
0.4449670315

> <CNNaffinity>
6.5975785255

> <CNN_VS>
2.9357049465

> <CNNaffinity_variance>
0.1300995946

$$$$
[H]c1c(-c2nc3c([H])c(OC([H])([H])C([H])([H])C([H])([H])N4C([H])([H])C([H])([H])C([H])([H])C4([H])[H])c(OC([H])([H])[H])c([H])c3c(N([H])C([H])([H])C3([H])C([H])([H])C([H])([H])N(C([H])([H])[H])C([H])([H])C3([H])[H])c2[H])oc(C([H])([H])[H])c1[H]


 37 41  0  0  0  0  0  0  0  0999 V2000
   32.5909  -20.8421   34.7103 C   0  0  0  0  0  0  0  0  0  0  0  0
   33.7964  -20.2570   34.4062 C   0  0  0  0  0  0  0  0  0  0  0  0
   34.1185  -18.9761   34.8112 C   0  0  0  0  0  0  0  0  0  0  0  0
   35.3303  -18.3978   34.5049 C   0  0  0  0  0  0  0  0  0  0  0  0
   35.5298  -17.0942   34.9778 C   0  0  0  0  0  0  0  0  0  0  0  0
   34.5656  -16.4267   35.7093 C   0  0  0  0  0  0  0  0  0  0  0  0
   33.4112  -17.0506   35.9700 N   0  0  0  0  0  0  0  0  0  0  0  0
   33.1506  -18.3008   35.5493 C   0  0  0  0  0  0  0  0  0  0  0  0
   31.9280  -18.8875   35.8602 C   0  0  0  0  0  0  0  0  0  0  0  0
   31.6109  -20.1606   35.4579 C   0  0  0  0  0  0  0  0  0  0  0  0
   34.7988  -15.0709   36.1884 C   0  0  0  0  0  0  0  0  0  0  0  0
   36.0074  -14.4064   36.2269 C   0  0  0  0  0  0  0  0  0  0  0  0
   35.7697  -13.1706   36.7447 C   0  0  0  0  0  0  0  0  0  0  0  0
   34.4227  -13.0965   37.0151 C   0  0  0  0  0  0  0  0  0  0  0  0
   33.7631  -11.9030   37.5930 C   0  0  0  0  0  0  0  0  0  0  0  0
   33.8936  -14.2470   36.6676 O   0  0  0  0  0  0  0  0  0  0  0  0
   32.1822  -23.2489   35.0877 C   0  0  0  0  0  0  0  0  0  0  0  0
   32.3480  -22.1360   34.2638 O   0  0  0  0  0  0  0  0  0  0  0  0
   36.3461  -19.0908   33.8067 N   0  0  0  0  0  0  0  0  0  0  0  0
   36.1006  -20.0711   33.4746 H   0  0  0  0  0  0  0  0  0  0  0  0
   37.6669  -18.6202   33.5113 C   0  0  0  0  0  0  0  0  0  0  0  0
   38.7940  -19.4520   34.0421 C   0  0  0  0  0  0  0  0  0  0  0  0
   40.1644  -18.8798   33.9535 C   0  0  0  0  0  0  0  0  0  0  0  0
   41.0665  -19.8263   34.7521 C   0  0  0  0  0  0  0  0  0  0  0  0
   40.8264  -19.6739   36.1720 N   0  0  0  0  0  0  0  0  0  0  0  0
   41.7999  -18.7956   36.7935 C   0  0  0  0  0  0  0  0  0  0  0  0
   39.5193  -19.1278   36.4402 C   0  0  0  0  0  0  0  0  0  0  0  0
   38.5119  -19.7259   35.5184 C   0  0  0  0  0  0  0  0  0  0  0  0
   30.4631  -20.8308   35.7046 O   0  0  0  0  0  0  0  0  0  0  0  0
   29.1341  -20.5281   35.5942 C   0  0  0  0  0  0  0  0  0  0  0  0
   28.2281  -21.4042   36.4008 C   0  0  0  0  0  0  0  0  0  0  0  0
   27.4861  -20.5982   37.4723 C   0  0  0  0  0  0  0  0  0  0  0  0
   28.0735  -20.9140   38.7832 N   0  0  0  0  0  0  0  0  0  0  0  0
   27.2941  -20.2569   39.7833 C   0  0  0  0  0  0  0  0  0  0  0  0
   27.0005  -21.2031   40.9033 C   0  0  0  0  0  0  0  0  0  0  0  0
   27.6252  -22.5017   40.4656 C   0  0  0  0  0  0  0  0  0  0  0  0
   28.0883  -22.3174   39.0535 C   0  0  0  0  0  0  0  0  0  0  0  0
 17 18  1  0  0  0
 18  1  1  0  0  0
  1  2  2  0  0  0
  2  3  1  0  0  0
  3  4  2  0  0  0
  4 19  1  0  0  0
 19 21  1  0  0  0
 21 22  1  0  0  0
 22 23  1  0  0  0
 23 24  1  0  0  0
 24 25  1  0  0  0
 25 26  1  0  0  0
 25 27  1  0  0  0
 27 28  1  0  0  0
  4  5  1  0  0  0
  5  6  2  0  0  0
  6  7  1  0  0  0
  7  8  2  0  0  0
  8  9  1  0  0  0
  9 10  2  0  0  0
 10 29  1  0  0  0
 29 30  1  0  0  0
 30 31  1  0  0  0
 31 32  1  0  0  0
 32 33  1  0  0  0
 33 34  1  0  0  0
 34 35  1  0  0  0
 35 36  1  0  0  0
 36 37  1  0  0  0
  6 11  1  0  0  0
 11 12  2  0  0  0
 12 13  1  0  0  0
 13 14  2  0  0  0
 14 15  1  0  0  0
 14 16  1  0  0  0
 10  1  1  0  0  0
 37 33  1  0  0  0
 16 11  1  0  0  0
  8  3  1  0  0  0
 28 22  1  0  0  0
 19 20  1  0  0  0
M  END
> <minimizedAffinity>
-6.50113

> <CNNscore>
0.4199240804

> <CNNaffinity>
6.3095788956

> <CNN_VS>
2.6495440006

> <CNNaffinity_variance>
0.1948468387

$$$$
[H]c1c(-c2nc3c([H])c(OC([H])([H])C([H])([H])C([H])([H])N4C([H])([H])C([H])([H])C([H])([H])C4([H])[H])c(OC([H])([H])[H])c([H])c3c(N([H])C([H])([H])C3([H])C([H])([H])C([H])([H])N(C([H])([H])[H])C([H])([H])C3([H])[H])c2[H])oc(C([H])([H])[H])c1[H]


 37 41  0  0  0  0  0  0  0  0999 V2000
   32.4243  -20.7535   34.4040 C   0  0  0  0  0  0  0  0  0  0  0  0
   33.7002  -20.2664   34.2526 C   0  0  0  0  0  0  0  0  0  0  0  0
   34.0682  -19.0102   34.6942 C   0  0  0  0  0  0  0  0  0  0  0  0
   35.3500  -18.5303   34.5414 C   0  0  0  0  0  0  0  0  0  0  0  0
   35.5901  -17.2413   35.0349 C   0  0  0  0  0  0  0  0  0  0  0  0
   34.5972  -16.4939   35.6399 C   0  0  0  0  0  0  0  0  0  0  0  0
   33.3743  -17.0241   35.7546 N   0  0  0  0  0  0  0  0  0  0  0  0
   33.0714  -18.2547   35.3053 C   0  0  0  0  0  0  0  0  0  0  0  0
   31.7778  -18.7419   35.4612 C   0  0  0  0  0  0  0  0  0  0  0  0
   31.4150  -19.9908   35.0230 C   0  0  0  0  0  0  0  0  0  0  0  0
   34.8739  -15.1554   36.1438 C   0  0  0  0  0  0  0  0  0  0  0  0
   36.1158  -14.5793   36.3155 C   0  0  0  0  0  0  0  0  0  0  0  0
   35.9127  -13.3263   36.8061 C   0  0  0  0  0  0  0  0  0  0  0  0
   34.5532  -13.1539   36.9274 C   0  0  0  0  0  0  0  0  0  0  0  0
   33.9222  -11.9124   37.4315 C   0  0  0  0  0  0  0  0  0  0  0  0
   33.9835  -14.2655   36.5223 O   0  0  0  0  0  0  0  0  0  0  0  0
   31.8534  -23.1343   34.7326 C   0  0  0  0  0  0  0  0  0  0  0  0
   32.1389  -22.0293   33.9313 O   0  0  0  0  0  0  0  0  0  0  0  0
   36.3878  -19.3067   33.9758 N   0  0  0  0  0  0  0  0  0  0  0  0
   36.1734  -19.7633   33.0392 H   0  0  0  0  0  0  0  0  0  0  0  0
   37.6851  -19.5521   34.5326 C   0  0  0  0  0  0  0  0  0  0  0  0
   37.7617  -19.5854   36.0283 C   0  0  0  0  0  0  0  0  0  0  0  0
   37.3344  -20.8394   36.7053 C   0  0  0  0  0  0  0  0  0  0  0  0
   37.7192  -20.6725   38.1788 C   0  0  0  0  0  0  0  0  0  0  0  0
   39.1541  -20.7806   38.3410 N   0  0  0  0  0  0  0  0  0  0  0  0
   39.5522  -22.1127   38.7567 C   0  0  0  0  0  0  0  0  0  0  0  0
   39.8570  -20.4821   37.1181 C   0  0  0  0  0  0  0  0  0  0  0  0
   39.2153  -19.3300   36.4231 C   0  0  0  0  0  0  0  0  0  0  0  0
   30.1967  -20.5678   35.1247 O   0  0  0  0  0  0  0  0  0  0  0  0
   29.1067  -20.3698   35.9264 C   0  0  0  0  0  0  0  0  0  0  0  0
   28.7004  -21.5652   36.7293 C   0  0  0  0  0  0  0  0  0  0  0  0
   28.2830  -22.7275   35.8219 C   0  0  0  0  0  0  0  0  0  0  0  0
   28.3925  -23.9788   36.5871 N   0  0  0  0  0  0  0  0  0  0  0  0
   28.6804  -25.0323   35.6670 C   0  0  0  0  0  0  0  0  0  0  0  0
   29.7880  -25.8843   36.1990 C   0  0  0  0  0  0  0  0  0  0  0  0
   30.1777  -25.2210   37.4936 C   0  0  0  0  0  0  0  0  0  0  0  0
   29.4249  -23.9290   37.5743 C   0  0  0  0  0  0  0  0  0  0  0  0
 17 18  1  0  0  0
 18  1  1  0  0  0
  1  2  2  0  0  0
  2  3  1  0  0  0
  3  4  2  0  0  0
  4 19  1  0  0  0
 19 21  1  0  0  0
 21 22  1  0  0  0
 22 23  1  0  0  0
 23 24  1  0  0  0
 24 25  1  0  0  0
 25 26  1  0  0  0
 25 27  1  0  0  0
 27 28  1  0  0  0
  4  5  1  0  0  0
  5  6  2  0  0  0
  6  7  1  0  0  0
  7  8  2  0  0  0
  8  9  1  0  0  0
  9 10  2  0  0  0
 10 29  1  0  0  0
 29 30  1  0  0  0
 30 31  1  0  0  0
 31 32  1  0  0  0
 32 33  1  0  0  0
 33 34  1  0  0  0
 34 35  1  0  0  0
 35 36  1  0  0  0
 36 37  1  0  0  0
  6 11  1  0  0  0
 11 12  2  0  0  0
 12 13  1  0  0  0
 13 14  2  0  0  0
 14 15  1  0  0  0
 14 16  1  0  0  0
 10  1  1  0  0  0
 37 33  1  0  0  0
 16 11  1  0  0  0
  8  3  1  0  0  0
 28 22  1  0  0  0
 19 20  1  0  0  0
M  END
> <minimizedAffinity>
-6.69136

> <CNNscore>
0.3737537563

> <CNNaffinity>
6.1657552719

> <CNN_VS>
2.3044741154

> <CNNaffinity_variance>
0.5268474817

$$$$
[H]c1c(-c2nc3c([H])c(OC([H])([H])C([H])([H])C([H])([H])N4C([H])([H])C([H])([H])C([H])([H])C4([H])[H])c(OC([H])([H])[H])c([H])c3c(N([H])C([H])([H])C3([H])C([H])([H])C([H])([H])N(C([H])([H])[H])C([H])([H])C3([H])[H])c2[H])oc(C([H])([H])[H])c1[H]


 37 41  0  0  0  0  0  0  0  0999 V2000
   36.9446  -21.9253   37.4708 C   0  0  0  0  0  0  0  0  0  0  0  0
   37.0858  -21.2036   36.3100 C   0  0  0  0  0  0  0  0  0  0  0  0
   36.7065  -19.8787   36.2136 C   0  0  0  0  0  0  0  0  0  0  0  0
   36.8540  -19.1613   35.0473 C   0  0  0  0  0  0  0  0  0  0  0  0
   36.4306  -17.8263   35.0854 C   0  0  0  0  0  0  0  0  0  0  0  0
   35.8951  -17.2619   36.2279 C   0  0  0  0  0  0  0  0  0  0  0  0
   35.7819  -18.0186   37.3253 N   0  0  0  0  0  0  0  0  0  0  0  0
   36.1678  -19.3061   37.3624 C   0  0  0  0  0  0  0  0  0  0  0  0
   36.0220  -20.0315   38.5405 C   0  0  0  0  0  0  0  0  0  0  0  0
   36.4008  -21.3471   38.6342 C   0  0  0  0  0  0  0  0  0  0  0  0
   35.4620  -15.8711   36.2398 C   0  0  0  0  0  0  0  0  0  0  0  0
   36.2603  -14.7573   36.0789 C   0  0  0  0  0  0  0  0  0  0  0  0
   35.4495  -13.6674   36.1588 C   0  0  0  0  0  0  0  0  0  0  0  0
   34.1700  -14.1282   36.3670 C   0  0  0  0  0  0  0  0  0  0  0  0
   32.9897  -13.2451   36.5104 C   0  0  0  0  0  0  0  0  0  0  0  0
   34.2317  -15.4393   36.4070 O   0  0  0  0  0  0  0  0  0  0  0  0
   36.8912  -24.2402   36.6102 C   0  0  0  0  0  0  0  0  0  0  0  0
   37.3528  -23.2542   37.4816 O   0  0  0  0  0  0  0  0  0  0  0  0
   37.4524  -19.7106   33.8899 N   0  0  0  0  0  0  0  0  0  0  0  0
   36.7850  -20.0542   33.1362 H   0  0  0  0  0  0  0  0  0  0  0  0
   38.8535  -19.8637   33.6313 C   0  0  0  0  0  0  0  0  0  0  0  0
   39.7702  -19.0163   34.4594 C   0  0  0  0  0  0  0  0  0  0  0  0
   40.5443  -19.6967   35.5322 C   0  0  0  0  0  0  0  0  0  0  0  0
   41.5380  -18.6553   36.0571 C   0  0  0  0  0  0  0  0  0  0  0  0
   42.5947  -18.4347   35.0918 N   0  0  0  0  0  0  0  0  0  0  0  0
   43.7833  -19.2055   35.4059 C   0  0  0  0  0  0  0  0  0  0  0  0
   42.1867  -18.7955   33.7569 C   0  0  0  0  0  0  0  0  0  0  0  0
   40.7797  -18.3667   33.5145 C   0  0  0  0  0  0  0  0  0  0  0  0
   36.3118  -22.1450   39.7219 O   0  0  0  0  0  0  0  0  0  0  0  0
   35.3621  -23.0009   40.2072 C   0  0  0  0  0  0  0  0  0  0  0  0
   34.9135  -22.7043   41.6035 C   0  0  0  0  0  0  0  0  0  0  0  0
   33.7623  -21.6927   41.6134 C   0  0  0  0  0  0  0  0  0  0  0  0
   33.8831  -20.8612   42.8206 N   0  0  0  0  0  0  0  0  0  0  0  0
   35.0705  -20.0775   42.6969 C   0  0  0  0  0  0  0  0  0  0  0  0
   34.7844  -18.6576   43.0684 C   0  0  0  0  0  0  0  0  0  0  0  0
   33.3100  -18.6439   43.3748 C   0  0  0  0  0  0  0  0  0  0  0  0
   32.7661  -19.9873   42.9983 C   0  0  0  0  0  0  0  0  0  0  0  0
 17 18  1  0  0  0
 18  1  1  0  0  0
  1  2  2  0  0  0
  2  3  1  0  0  0
  3  4  2  0  0  0
  4 19  1  0  0  0
 19 21  1  0  0  0
 21 22  1  0  0  0
 22 23  1  0  0  0
 23 24  1  0  0  0
 24 25  1  0  0  0
 25 26  1  0  0  0
 25 27  1  0  0  0
 27 28  1  0  0  0
  4  5  1  0  0  0
  5  6  2  0  0  0
  6  7  1  0  0  0
  7  8  2  0  0  0
  8  9  1  0  0  0
  9 10  2  0  0  0
 10 29  1  0  0  0
 29 30  1  0  0  0
 30 31  1  0  0  0
 31 32  1  0  0  0
 32 33  1  0  0  0
 33 34  1  0  0  0
 34 35  1  0  0  0
 35 36  1  0  0  0
 36 37  1  0  0  0
  6 11  1  0  0  0
 11 12  2  0  0  0
 12 13  1  0  0  0
 13 14  2  0  0  0
 14 15  1  0  0  0
 14 16  1  0  0  0
 10  1  1  0  0  0
 37 33  1  0  0  0
 16 11  1  0  0  0
  8  3  1  0  0  0
 28 22  1  0  0  0
 19 20  1  0  0  0
M  END
> <minimizedAffinity>
-6.12371

> <CNNscore>
0.3161899447

> <CNNaffinity>
6.0080356598

> <CNN_VS>
1.8996804953

> <CNNaffinity_variance>
0.2041614354

$$$$
[H]c1c(-c2nc3c([H])c(OC([H])([H])C([H])([H])C([H])([H])N4C([H])([H])C([H])([H])C([H])([H])C4([H])[H])c(OC([H])([H])[H])c([H])c3c(N([H])C([H])([H])C3([H])C([H])([H])C([H])([H])N(C([H])([H])[H])C([H])([H])C3([H])[H])c2[H])oc(C([H])([H])[H])c1[H]


 37 41  0  0  0  0  0  0  0  0999 V2000
   37.5220  -19.5119   35.7492 C   0  0  0  0  0  0  0  0  0  0  0  0
   36.2694  -19.1503   35.3153 C   0  0  0  0  0  0  0  0  0  0  0  0
   35.7018  -17.9311   35.6317 C   0  0  0  0  0  0  0  0  0  0  0  0
   34.4469  -17.5748   35.1904 C   0  0  0  0  0  0  0  0  0  0  0  0
   33.9904  -16.3094   35.5820 C   0  0  0  0  0  0  0  0  0  0  0  0
   34.7556  -15.4672   36.3666 C   0  0  0  0  0  0  0  0  0  0  0  0
   35.9666  -15.8792   36.7588 N   0  0  0  0  0  0  0  0  0  0  0  0
   36.4698  -17.0794   36.4207 C   0  0  0  0  0  0  0  0  0  0  0  0
   37.7385  -17.4397   36.8635 C   0  0  0  0  0  0  0  0  0  0  0  0
   38.3007  -18.6509   36.5467 C   0  0  0  0  0  0  0  0  0  0  0  0
   34.2563  -14.1565   36.7601 C   0  0  0  0  0  0  0  0  0  0  0  0
   35.0076  -13.0211   36.9841 C   0  0  0  0  0  0  0  0  0  0  0  0
   34.1425  -12.0293   37.3304 C   0  0  0  0  0  0  0  0  0  0  0  0
   32.8777  -12.5704   37.3136 C   0  0  0  0  0  0  0  0  0  0  0  0
   31.6507  -11.8063   37.6366 C   0  0  0  0  0  0  0  0  0  0  0  0
   33.0000  -13.8318   36.9699 O   0  0  0  0  0  0  0  0  0  0  0  0
   38.7811  -21.0132   34.2449 C   0  0  0  0  0  0  0  0  0  0  0  0
   38.0184  -20.7581   35.3841 O   0  0  0  0  0  0  0  0  0  0  0  0
   33.6783  -18.4037   34.3408 N   0  0  0  0  0  0  0  0  0  0  0  0
   34.2173  -18.9376   33.5951 H   0  0  0  0  0  0  0  0  0  0  0  0
   32.2580  -18.5905   34.3698 C   0  0  0  0  0  0  0  0  0  0  0  0
   31.7782  -20.0012   34.2158 C   0  0  0  0  0  0  0  0  0  0  0  0
   32.7218  -21.0876   34.5937 C   0  0  0  0  0  0  0  0  0  0  0  0
   31.9084  -22.3850   34.5461 C   0  0  0  0  0  0  0  0  0  0  0  0
   30.9952  -22.4494   35.6680 N   0  0  0  0  0  0  0  0  0  0  0  0
   31.5318  -23.2447   36.7567 C   0  0  0  0  0  0  0  0  0  0  0  0
   30.6985  -21.1407   36.1950 C   0  0  0  0  0  0  0  0  0  0  0  0
   30.5304  -20.1631   35.0823 C   0  0  0  0  0  0  0  0  0  0  0  0
   39.5203  -19.1038   36.9138 O   0  0  0  0  0  0  0  0  0  0  0  0
   40.8046  -18.7859   36.5677 C   0  0  0  0  0  0  0  0  0  0  0  0
   41.8553  -19.5547   37.3052 C   0  0  0  0  0  0  0  0  0  0  0  0
   41.2299  -20.5036   38.3332 C   0  0  0  0  0  0  0  0  0  0  0  0
   42.0710  -20.5035   39.5397 N   0  0  0  0  0  0  0  0  0  0  0  0
   43.2129  -19.6865   39.2788 C   0  0  0  0  0  0  0  0  0  0  0  0
   43.4544  -18.7658   40.4320 C   0  0  0  0  0  0  0  0  0  0  0  0
   42.3276  -19.0624   41.3861 C   0  0  0  0  0  0  0  0  0  0  0  0
   41.3862  -19.9926   40.6854 C   0  0  0  0  0  0  0  0  0  0  0  0
 17 18  1  0  0  0
 18  1  1  0  0  0
  1  2  2  0  0  0
  2  3  1  0  0  0
  3  4  2  0  0  0
  4 19  1  0  0  0
 19 21  1  0  0  0
 21 22  1  0  0  0
 22 23  1  0  0  0
 23 24  1  0  0  0
 24 25  1  0  0  0
 25 26  1  0  0  0
 25 27  1  0  0  0
 27 28  1  0  0  0
  4  5  1  0  0  0
  5  6  2  0  0  0
  6  7  1  0  0  0
  7  8  2  0  0  0
  8  9  1  0  0  0
  9 10  2  0  0  0
 10 29  1  0  0  0
 29 30  1  0  0  0
 30 31  1  0  0  0
 31 32  1  0  0  0
 32 33  1  0  0  0
 33 34  1  0  0  0
 34 35  1  0  0  0
 35 36  1  0  0  0
 36 37  1  0  0  0
  6 11  1  0  0  0
 11 12  2  0  0  0
 12 13  1  0  0  0
 13 14  2  0  0  0
 14 15  1  0  0  0
 14 16  1  0  0  0
 10  1  1  0  0  0
 37 33  1  0  0  0
 16 11  1  0  0  0
  8  3  1  0  0  0
 28 22  1  0  0  0
 19 20  1  0  0  0
M  END
> <minimizedAffinity>
-7.23161

> <CNNscore>
0.3046995103

> <CNNaffinity>
6.1592044830

> <CNN_VS>
1.8767066002

> <CNNaffinity_variance>
0.1975165904

$$$$
[H]c1c2c(c([H])c(OC([H])([H])[H])c1OC([H])([H])C([H])([H])C([H])([H])N1C([H])([H])C([H])([H])[C@@]([H])(F)C1([H])[H])C1(C(N([H])[H])=N2)C([H])([H])C([H])([H])C1([H])[H]


 27 30  0  0  0  0  0  0  0  0999 V2000
   36.4705  -14.9665   37.3655 C   0  0  0  0  0  0  0  0  0  0  0  0
   36.8941  -16.1140   36.7406 C   0  0  0  0  0  0  0  0  0  0  0  0
   36.0248  -16.8967   35.9727 C   0  0  0  0  0  0  0  0  0  0  0  0
   34.7093  -16.5175   35.8324 C   0  0  0  0  0  0  0  0  0  0  0  0
   34.2973  -15.3546   36.4709 C   0  0  0  0  0  0  0  0  0  0  0  0
   35.1330  -14.5696   37.2306 C   0  0  0  0  0  0  0  0  0  0  0  0
   34.0644  -17.4788   35.0102 N   0  0  0  0  0  0  0  0  0  0  0  0
   34.8728  -18.4100   34.6381 C   0  0  0  0  0  0  0  0  0  0  0  0
   34.5749  -19.5401   33.8073 N   0  0  0  0  0  0  0  0  0  0  0  0
   36.1848  -18.1368   35.2100 C   0  0  0  0  0  0  0  0  0  0  0  0
   36.8483  -19.2766   35.9387 C   0  0  0  0  0  0  0  0  0  0  0  0
   37.6226  -19.5893   34.6795 C   0  0  0  0  0  0  0  0  0  0  0  0
   37.3444  -18.1542   34.2372 C   0  0  0  0  0  0  0  0  0  0  0  0
   34.2192  -19.4050   32.8488 H   0  0  0  0  0  0  0  0  0  0  0  0
   34.7162  -20.4931   34.1711 H   0  0  0  0  0  0  0  0  0  0  0  0
   38.1425  -13.1626   37.6701 C   0  0  0  0  0  0  0  0  0  0  0  0
   37.2727  -14.1457   38.1389 O   0  0  0  0  0  0  0  0  0  0  0  0
   34.6864  -13.4107   37.8574 O   0  0  0  0  0  0  0  0  0  0  0  0
   33.7242  -12.6230   37.2091 C   0  0  0  0  0  0  0  0  0  0  0  0
   32.3778  -12.6883   37.9226 C   0  0  0  0  0  0  0  0  0  0  0  0
   31.5392  -11.5240   37.4944 C   0  0  0  0  0  0  0  0  0  0  0  0
   32.0692  -10.2576   37.9757 N   0  0  0  0  0  0  0  0  0  0  0  0
   33.4509  -10.1425   37.6194 C   0  0  0  0  0  0  0  0  0  0  0  0
   33.6893   -8.8412   36.9284 C   0  0  0  0  0  0  0  0  0  0  0  0
   32.3377   -8.2339   36.7811 C   0  0  0  0  0  0  0  0  0  0  0  0
   32.0743   -7.9133   35.4514 F   0  0  0  0  0  0  0  0  0  0  0  0
   31.3376   -9.1928   37.3400 C   0  0  0  0  0  0  0  0  0  0  0  0
 16 17  1  0  0  0
 17  1  1  0  0  0
  1  2  2  0  0  0
  2  3  1  0  0  0
  3  4  2  0  0  0
  4  5  1  0  0  0
  5  6  2  0  0  0
  6 18  1  0  0  0
 18 19  1  0  0  0
 19 20  1  0  0  0
 20 21  1  0  0  0
 21 22  1  0  0  0
 22 23  1  0  0  0
 23 24  1  0  0  0
 24 25  1  0  0  0
 25 26  1  0  0  0
 25 27  1  0  0  0
  4  7  1  0  0  0
  7  8  2  0  0  0
  8  9  1  0  0  0
  8 10  1  0  0  0
 10 11  1  0  0  0
 11 12  1  0  0  0
 12 13  1  0  0  0
  6  1  1  0  0  0
 27 22  1  0  0  0
 13 10  1  0  0  0
 10  3  1  0  0  0
  9 14  1  0  0  0
  9 15  1  0  0  0
M  END
> <minimizedAffinity>
-7.92804

> <CNNscore>
0.6915905476

> <CNNaffinity>
6.4805135727

> <CNN_VS>
4.4818620682

> <CNNaffinity_variance>
0.1624544859

$$$$
[H]c1c2c(c([H])c(OC([H])([H])[H])c1OC([H])([H])C([H])([H])C([H])([H])N1C([H])([H])C([H])([H])[C@@]([H])(F)C1([H])[H])C1(C(N([H])[H])=N2)C([H])([H])C([H])([H])C1([H])[H]


 27 30  0  0  0  0  0  0  0  0999 V2000
   36.4831  -15.0008   37.3080 C   0  0  0  0  0  0  0  0  0  0  0  0
   36.9116  -16.1335   36.6599 C   0  0  0  0  0  0  0  0  0  0  0  0
   36.0380  -16.9225   35.9034 C   0  0  0  0  0  0  0  0  0  0  0  0
   34.7132  -16.5650   35.7986 C   0  0  0  0  0  0  0  0  0  0  0  0
   34.2964  -15.4169   36.4603 C   0  0  0  0  0  0  0  0  0  0  0  0
   35.1362  -14.6260   37.2094 C   0  0  0  0  0  0  0  0  0  0  0  0
   34.0657  -17.5280   34.9805 N   0  0  0  0  0  0  0  0  0  0  0  0
   34.8810  -18.4405   34.5785 C   0  0  0  0  0  0  0  0  0  0  0  0
   34.5831  -19.5662   33.7417 N   0  0  0  0  0  0  0  0  0  0  0  0
   36.2013  -18.1509   35.1226 C   0  0  0  0  0  0  0  0  0  0  0  0
   36.9015  -19.2871   35.8219 C   0  0  0  0  0  0  0  0  0  0  0  0
   37.6510  -19.5717   34.5413 C   0  0  0  0  0  0  0  0  0  0  0  0
   37.3376  -18.1368   34.1226 C   0  0  0  0  0  0  0  0  0  0  0  0
   34.2025  -19.4264   32.7935 H   0  0  0  0  0  0  0  0  0  0  0  0
   34.7495  -20.5206   34.0907 H   0  0  0  0  0  0  0  0  0  0  0  0
   38.2978  -13.3378   37.5979 C   0  0  0  0  0  0  0  0  0  0  0  0
   37.2892  -14.1749   38.0721 O   0  0  0  0  0  0  0  0  0  0  0  0
   34.6845  -13.4824   37.8602 O   0  0  0  0  0  0  0  0  0  0  0  0
   34.3271  -12.3665   37.0898 C   0  0  0  0  0  0  0  0  0  0  0  0
   33.2331  -11.5483   37.7680 C   0  0  0  0  0  0  0  0  0  0  0  0
   32.1610  -12.4726   38.2561 C   0  0  0  0  0  0  0  0  0  0  0  0
   30.8636  -12.1671   37.6728 N   0  0  0  0  0  0  0  0  0  0  0  0
   29.8324  -12.3834   38.6419 C   0  0  0  0  0  0  0  0  0  0  0  0
   28.9636  -11.1733   38.7360 C   0  0  0  0  0  0  0  0  0  0  0  0
   29.6127  -10.1675   37.8503 C   0  0  0  0  0  0  0  0  0  0  0  0
   29.8696   -8.9844   38.5393 F   0  0  0  0  0  0  0  0  0  0  0  0
   30.8569  -10.7783   37.2927 C   0  0  0  0  0  0  0  0  0  0  0  0
 16 17  1  0  0  0
 17  1  1  0  0  0
  1  2  2  0  0  0
  2  3  1  0  0  0
  3  4  2  0  0  0
  4  5  1  0  0  0
  5  6  2  0  0  0
  6 18  1  0  0  0
 18 19  1  0  0  0
 19 20  1  0  0  0
 20 21  1  0  0  0
 21 22  1  0  0  0
 22 23  1  0  0  0
 23 24  1  0  0  0
 24 25  1  0  0  0
 25 26  1  0  0  0
 25 27  1  0  0  0
  4  7  1  0  0  0
  7  8  2  0  0  0
  8  9  1  0  0  0
  8 10  1  0  0  0
 10 11  1  0  0  0
 11 12  1  0  0  0
 12 13  1  0  0  0
  6  1  1  0  0  0
 27 22  1  0  0  0
 13 10  1  0  0  0
 10  3  1  0  0  0
  9 14  1  0  0  0
  9 15  1  0  0  0
M  END
> <minimizedAffinity>
-8.15743

> <CNNscore>
0.6511582136

> <CNNaffinity>
6.2364645004

> <CNN_VS>
4.0609250069

> <CNNaffinity_variance>
0.1539627463

$$$$
[H]c1c2c(c([H])c(OC([H])([H])[H])c1OC([H])([H])C([H])([H])C([H])([H])N1C([H])([H])C([H])([H])[C@@]([H])(F)C1([H])[H])C1(C(N([H])[H])=N2)C([H])([H])C([H])([H])C1([H])[H]


 27 30  0  0  0  0  0  0  0  0999 V2000
   36.3391  -14.9923   37.2658 C   0  0  0  0  0  0  0  0  0  0  0  0
   36.7844  -16.1648   36.7056 C   0  0  0  0  0  0  0  0  0  0  0  0
   35.9506  -16.9662   35.9178 C   0  0  0  0  0  0  0  0  0  0  0  0
   34.6492  -16.5805   35.6910 C   0  0  0  0  0  0  0  0  0  0  0  0
   34.2150  -15.3922   36.2649 C   0  0  0  0  0  0  0  0  0  0  0  0
   35.0156  -14.5885   37.0427 C   0  0  0  0  0  0  0  0  0  0  0  0
   34.0406  -17.5642   34.8677 N   0  0  0  0  0  0  0  0  0  0  0  0
   34.8582  -18.5151   34.5739 C   0  0  0  0  0  0  0  0  0  0  0  0
   34.5947  -19.6710   33.7673 N   0  0  0  0  0  0  0  0  0  0  0  0
   36.1393  -18.2337   35.2086 C   0  0  0  0  0  0  0  0  0  0  0  0
   36.7488  -19.3531   36.0121 C   0  0  0  0  0  0  0  0  0  0  0  0
   37.5885  -19.7167   34.8099 C   0  0  0  0  0  0  0  0  0  0  0  0
   37.3509  -18.2956   34.3033 C   0  0  0  0  0  0  0  0  0  0  0  0
   34.2944  -19.5664   32.7863 H   0  0  0  0  0  0  0  0  0  0  0  0
   34.7052  -20.6118   34.1711 H   0  0  0  0  0  0  0  0  0  0  0  0
   38.1814  -13.3745   37.6279 C   0  0  0  0  0  0  0  0  0  0  0  0
   37.1060  -14.1521   38.0541 O   0  0  0  0  0  0  0  0  0  0  0  0
   34.5474  -13.4044   37.6030 O   0  0  0  0  0  0  0  0  0  0  0  0
   33.2169  -13.3476   38.0423 C   0  0  0  0  0  0  0  0  0  0  0  0
   32.6634  -11.9288   37.9615 C   0  0  0  0  0  0  0  0  0  0  0  0
   31.2890  -11.9717   37.3689 C   0  0  0  0  0  0  0  0  0  0  0  0
   30.2895  -11.3948   38.2547 N   0  0  0  0  0  0  0  0  0  0  0  0
   29.1459  -10.9869   37.4965 C   0  0  0  0  0  0  0  0  0  0  0  0
   27.9070  -11.5605   38.0998 C   0  0  0  0  0  0  0  0  0  0  0  0
   28.3902  -12.4419   39.1984 C   0  0  0  0  0  0  0  0  0  0  0  0
   27.8932  -13.7357   39.0585 F   0  0  0  0  0  0  0  0  0  0  0  0
   29.8838  -12.4069   39.1951 C   0  0  0  0  0  0  0  0  0  0  0  0
 16 17  1  0  0  0
 17  1  1  0  0  0
  1  2  2  0  0  0
  2  3  1  0  0  0
  3  4  2  0  0  0
  4  5  1  0  0  0
  5  6  2  0  0  0
  6 18  1  0  0  0
 18 19  1  0  0  0
 19 20  1  0  0  0
 20 21  1  0  0  0
 21 22  1  0  0  0
 22 23  1  0  0  0
 23 24  1  0  0  0
 24 25  1  0  0  0
 25 26  1  0  0  0
 25 27  1  0  0  0
  4  7  1  0  0  0
  7  8  2  0  0  0
  8  9  1  0  0  0
  8 10  1  0  0  0
 10 11  1  0  0  0
 11 12  1  0  0  0
 12 13  1  0  0  0
  6  1  1  0  0  0
 27 22  1  0  0  0
 13 10  1  0  0  0
 10  3  1  0  0  0
  9 14  1  0  0  0
  9 15  1  0  0  0
M  END
> <minimizedAffinity>
-7.81997

> <CNNscore>
0.5666038394

> <CNNaffinity>
5.8636050224

> <CNN_VS>
3.3223412037

> <CNNaffinity_variance>
0.1768021882

$$$$
[H]c1c2c(c([H])c(OC([H])([H])[H])c1OC([H])([H])C([H])([H])C([H])([H])N1C([H])([H])C([H])([H])[C@@]([H])(F)C1([H])[H])C1(C(N([H])[H])=N2)C([H])([H])C([H])([H])C1([H])[H]


 27 30  0  0  0  0  0  0  0  0999 V2000
   36.1097  -13.9905   36.9884 C   0  0  0  0  0  0  0  0  0  0  0  0
   35.5988  -12.7283   37.1689 C   0  0  0  0  0  0  0  0  0  0  0  0
   34.2286  -12.4671   37.0576 C   0  0  0  0  0  0  0  0  0  0  0  0
   33.3605  -13.4927   36.7601 C   0  0  0  0  0  0  0  0  0  0  0  0
   33.8937  -14.7629   36.5807 C   0  0  0  0  0  0  0  0  0  0  0  0
   35.2361  -15.0437   36.6847 C   0  0  0  0  0  0  0  0  0  0  0  0
   32.0484  -12.9524   36.7120 N   0  0  0  0  0  0  0  0  0  0  0  0
   32.0423  -11.6874   36.9541 C   0  0  0  0  0  0  0  0  0  0  0  0
   30.9058  -10.8139   36.9905 N   0  0  0  0  0  0  0  0  0  0  0  0
   33.4141  -11.2573   37.1920 C   0  0  0  0  0  0  0  0  0  0  0  0
   33.8845  -10.0571   36.4118 C   0  0  0  0  0  0  0  0  0  0  0  0
   33.5593   -9.1921   37.6072 C   0  0  0  0  0  0  0  0  0  0  0  0
   33.6442  -10.4583   38.4569 C   0  0  0  0  0  0  0  0  0  0  0  0
   30.1331  -10.9887   37.6509 H   0  0  0  0  0  0  0  0  0  0  0  0
   30.8606  -10.0072   36.3521 H   0  0  0  0  0  0  0  0  0  0  0  0
   38.4500  -13.5528   37.6768 C   0  0  0  0  0  0  0  0  0  0  0  0
   37.4503  -14.3212   37.0827 O   0  0  0  0  0  0  0  0  0  0  0  0
   35.7362  -16.3283   36.4977 O   0  0  0  0  0  0  0  0  0  0  0  0
   35.5397  -16.9531   35.2578 C   0  0  0  0  0  0  0  0  0  0  0  0
   34.6684  -18.1976   35.3927 C   0  0  0  0  0  0  0  0  0  0  0  0
   33.5449  -18.1188   34.4060 C   0  0  0  0  0  0  0  0  0  0  0  0
   32.4230  -18.9658   34.7808 N   0  0  0  0  0  0  0  0  0  0  0  0
   32.1931  -19.9458   33.7630 C   0  0  0  0  0  0  0  0  0  0  0  0
   32.1394  -21.3070   34.3731 C   0  0  0  0  0  0  0  0  0  0  0  0
   32.4755  -21.0956   35.8083 C   0  0  0  0  0  0  0  0  0  0  0  0
   33.5449  -21.8993   36.1964 F   0  0  0  0  0  0  0  0  0  0  0  0
   32.7596  -19.6423   36.0064 C   0  0  0  0  0  0  0  0  0  0  0  0
 16 17  1  0  0  0
 17  1  1  0  0  0
  1  2  2  0  0  0
  2  3  1  0  0  0
  3  4  2  0  0  0
  4  5  1  0  0  0
  5  6  2  0  0  0
  6 18  1  0  0  0
 18 19  1  0  0  0
 19 20  1  0  0  0
 20 21  1  0  0  0
 21 22  1  0  0  0
 22 23  1  0  0  0
 23 24  1  0  0  0
 24 25  1  0  0  0
 25 26  1  0  0  0
 25 27  1  0  0  0
  4  7  1  0  0  0
  7  8  2  0  0  0
  8  9  1  0  0  0
  8 10  1  0  0  0
 10 11  1  0  0  0
 11 12  1  0  0  0
 12 13  1  0  0  0
  6  1  1  0  0  0
 27 22  1  0  0  0
 13 10  1  0  0  0
 10  3  1  0  0  0
  9 14  1  0  0  0
  9 15  1  0  0  0
M  END
> <minimizedAffinity>
-5.25308

> <CNNscore>
0.4797380269

> <CNNaffinity>
5.8931798935

> <CNN_VS>
2.8271825314

> <CNNaffinity_variance>
0.0305573586

$$$$
[H]c1c2c(c([H])c(OC([H])([H])[H])c1OC([H])([H])C([H])([H])C([H])([H])N1C([H])([H])C([H])([H])[C@@]([H])(F)C1([H])[H])C1(C(N([H])[H])=N2)C([H])([H])C([H])([H])C1([H])[H]


 27 30  0  0  0  0  0  0  0  0999 V2000
   34.3020  -17.9717   35.7950 C   0  0  0  0  0  0  0  0  0  0  0  0
   33.7941  -16.7403   36.1301 C   0  0  0  0  0  0  0  0  0  0  0  0
   34.5903  -15.5896   36.1212 C   0  0  0  0  0  0  0  0  0  0  0  0
   35.9177  -15.6811   35.7695 C   0  0  0  0  0  0  0  0  0  0  0  0
   36.4152  -16.9339   35.4336 C   0  0  0  0  0  0  0  0  0  0  0  0
   35.6525  -18.0785   35.4353 C   0  0  0  0  0  0  0  0  0  0  0  0
   36.4783  -14.3788   35.8425 N   0  0  0  0  0  0  0  0  0  0  0  0
   35.6078  -13.5026   36.2081 C   0  0  0  0  0  0  0  0  0  0  0  0
   35.8129  -12.0949   36.3883 N   0  0  0  0  0  0  0  0  0  0  0  0
   34.3353  -14.1792   36.4225 C   0  0  0  0  0  0  0  0  0  0  0  0
   33.6408  -13.9008   37.7304 C   0  0  0  0  0  0  0  0  0  0  0  0
   32.8029  -12.8584   37.0274 C   0  0  0  0  0  0  0  0  0  0  0  0
   33.1397  -13.5723   35.7199 C   0  0  0  0  0  0  0  0  0  0  0  0
   36.1380  -11.5094   35.6040 H   0  0  0  0  0  0  0  0  0  0  0  0
   35.6353  -11.6663   37.3076 H   0  0  0  0  0  0  0  0  0  0  0  0
   32.2177  -19.2781   35.4926 C   0  0  0  0  0  0  0  0  0  0  0  0
   33.5750  -19.1494   35.7822 O   0  0  0  0  0  0  0  0  0  0  0  0
   36.1839  -19.3180   35.0940 O   0  0  0  0  0  0  0  0  0  0  0  0
   37.4169  -19.6963   35.6446 C   0  0  0  0  0  0  0  0  0  0  0  0
   38.2939  -20.4017   34.6154 C   0  0  0  0  0  0  0  0  0  0  0  0
   38.7196  -19.4134   33.5742 C   0  0  0  0  0  0  0  0  0  0  0  0
   40.0769  -19.6545   33.1091 N   0  0  0  0  0  0  0  0  0  0  0  0
   40.9063  -18.5324   33.4287 C   0  0  0  0  0  0  0  0  0  0  0  0
   42.1317  -18.9955   34.1442 C   0  0  0  0  0  0  0  0  0  0  0  0
   41.9273  -20.4569   34.3445 C   0  0  0  0  0  0  0  0  0  0  0  0
   42.0516  -20.8009   35.6886 F   0  0  0  0  0  0  0  0  0  0  0  0
   40.5868  -20.8156   33.7910 C   0  0  0  0  0  0  0  0  0  0  0  0
 16 17  1  0  0  0
 17  1  1  0  0  0
  1  2  2  0  0  0
  2  3  1  0  0  0
  3  4  2  0  0  0
  4  5  1  0  0  0
  5  6  2  0  0  0
  6 18  1  0  0  0
 18 19  1  0  0  0
 19 20  1  0  0  0
 20 21  1  0  0  0
 21 22  1  0  0  0
 22 23  1  0  0  0
 23 24  1  0  0  0
 24 25  1  0  0  0
 25 26  1  0  0  0
 25 27  1  0  0  0
  4  7  1  0  0  0
  7  8  2  0  0  0
  8  9  1  0  0  0
  8 10  1  0  0  0
 10 11  1  0  0  0
 11 12  1  0  0  0
 12 13  1  0  0  0
  6  1  1  0  0  0
 27 22  1  0  0  0
 13 10  1  0  0  0
 10  3  1  0  0  0
  9 14  1  0  0  0
  9 15  1  0  0  0
M  END
> <minimizedAffinity>
-5.91085

> <CNNscore>
0.4110907316

> <CNNaffinity>
5.2324457169

> <CNN_VS>
2.1510100365

> <CNNaffinity_variance>
0.2268081456

$$$$
[H]c1c2c(c([H])c(OC([H])([H])[H])c1OC([H])([H])C([H])([H])C([H])([H])N1C([H])([H])C([H])([H])[C@@]([H])(F)C1([H])[H])C1(C(N([H])[H])=N2)C([H])([H])C([H])([H])C1([H])[H]


 27 30  0  0  0  0  0  0  0  0999 V2000
   36.0230  -18.1952   34.9550 C   0  0  0  0  0  0  0  0  0  0  0  0
   36.4912  -17.0995   35.6382 C   0  0  0  0  0  0  0  0  0  0  0  0
   35.6332  -16.0850   36.0770 C   0  0  0  0  0  0  0  0  0  0  0  0
   34.2835  -16.1760   35.8237 C   0  0  0  0  0  0  0  0  0  0  0  0
   33.8267  -17.2905   35.1316 C   0  0  0  0  0  0  0  0  0  0  0  0
   34.6506  -18.2997   34.6903 C   0  0  0  0  0  0  0  0  0  0  0  0
   33.6584  -15.0271   36.3762 N   0  0  0  0  0  0  0  0  0  0  0  0
   34.5100  -14.2449   36.9435 C   0  0  0  0  0  0  0  0  0  0  0  0
   34.2429  -13.0003   37.6038 N   0  0  0  0  0  0  0  0  0  0  0  0
   35.8366  -14.8322   36.8080 C   0  0  0  0  0  0  0  0  0  0  0  0
   36.9181  -13.9280   36.2760 C   0  0  0  0  0  0  0  0  0  0  0  0
   37.3441  -13.6525   37.6992 C   0  0  0  0  0  0  0  0  0  0  0  0
   36.6386  -14.9507   38.0863 C   0  0  0  0  0  0  0  0  0  0  0  0
   33.6044  -12.9644   38.4128 H   0  0  0  0  0  0  0  0  0  0  0  0
   34.6912  -12.1367   37.2669 H   0  0  0  0  0  0  0  0  0  0  0  0
   38.0713  -19.1160   33.9066 C   0  0  0  0  0  0  0  0  0  0  0  0
   36.8118  -19.2339   34.4918 O   0  0  0  0  0  0  0  0  0  0  0  0
   34.1590  -19.4020   33.9987 O   0  0  0  0  0  0  0  0  0  0  0  0
   32.7873  -19.4606   33.7133 C   0  0  0  0  0  0  0  0  0  0  0  0
   32.0935  -20.5444   34.5319 C   0  0  0  0  0  0  0  0  0  0  0  0
   31.1793  -19.8981   35.5262 C   0  0  0  0  0  0  0  0  0  0  0  0
   30.4540  -20.8754   36.3232 N   0  0  0  0  0  0  0  0  0  0  0  0
   29.0686  -20.8641   35.9628 C   0  0  0  0  0  0  0  0  0  0  0  0
   28.6135  -22.2521   35.6558 C   0  0  0  0  0  0  0  0  0  0  0  0
   29.8460  -23.0840   35.7344 C   0  0  0  0  0  0  0  0  0  0  0  0
   30.0401  -23.8049   34.5583 F   0  0  0  0  0  0  0  0  0  0  0  0
   30.9951  -22.1790   36.0386 C   0  0  0  0  0  0  0  0  0  0  0  0
 16 17  1  0  0  0
 17  1  1  0  0  0
  1  2  2  0  0  0
  2  3  1  0  0  0
  3  4  2  0  0  0
  4  5  1  0  0  0
  5  6  2  0  0  0
  6 18  1  0  0  0
 18 19  1  0  0  0
 19 20  1  0  0  0
 20 21  1  0  0  0
 21 22  1  0  0  0
 22 23  1  0  0  0
 23 24  1  0  0  0
 24 25  1  0  0  0
 25 26  1  0  0  0
 25 27  1  0  0  0
  4  7  1  0  0  0
  7  8  2  0  0  0
  8  9  1  0  0  0
  8 10  1  0  0  0
 10 11  1  0  0  0
 11 12  1  0  0  0
 12 13  1  0  0  0
  6  1  1  0  0  0
 27 22  1  0  0  0
 13 10  1  0  0  0
 10  3  1  0  0  0
  9 14  1  0  0  0
  9 15  1  0  0  0
M  END
> <minimizedAffinity>
-7.02336

> <CNNscore>
0.4070658386

> <CNNaffinity>
5.2490630150

> <CNN_VS>
2.1367142200

> <CNNaffinity_variance>
0.3323930800

$$$$
[H]c1c2c(c([H])c(OC([H])([H])[H])c1OC([H])([H])C([H])([H])C([H])([H])N1C([H])([H])C([H])([H])[C@@]([H])(F)C1([H])[H])C1(C(N([H])[H])=N2)C([H])([H])C([H])([H])C1([H])[H]


 27 30  0  0  0  0  0  0  0  0999 V2000
   37.3129  -18.3639   36.6783 C   0  0  0  0  0  0  0  0  0  0  0  0
   37.0870  -17.0123   36.7731 C   0  0  0  0  0  0  0  0  0  0  0  0
   35.8475  -16.4497   36.4487 C   0  0  0  0  0  0  0  0  0  0  0  0
   34.8207  -17.2609   36.0225 C   0  0  0  0  0  0  0  0  0  0  0  0
   35.0661  -18.6252   35.9321 C   0  0  0  0  0  0  0  0  0  0  0  0
   36.2755  -19.2009   36.2452 C   0  0  0  0  0  0  0  0  0  0  0  0
   33.6921  -16.4377   35.7687 N   0  0  0  0  0  0  0  0  0  0  0  0
   33.9426  -15.1962   36.0031 C   0  0  0  0  0  0  0  0  0  0  0  0
   33.0471  -14.0856   35.8593 N   0  0  0  0  0  0  0  0  0  0  0  0
   35.3245  -15.0817   36.4508 C   0  0  0  0  0  0  0  0  0  0  0  0
   36.1723  -14.0519   35.7501 C   0  0  0  0  0  0  0  0  0  0  0  0
   35.8795  -13.0896   36.8775 C   0  0  0  0  0  0  0  0  0  0  0  0
   35.5396  -14.3077   37.7338 C   0  0  0  0  0  0  0  0  0  0  0  0
   32.1643  -14.0536   36.3915 H   0  0  0  0  0  0  0  0  0  0  0  0
   33.2869  -13.3154   35.2193 H   0  0  0  0  0  0  0  0  0  0  0  0
   39.6291  -19.0732   36.1543 C   0  0  0  0  0  0  0  0  0  0  0  0
   38.5105  -18.9879   36.9815 O   0  0  0  0  0  0  0  0  0  0  0  0
   36.4869  -20.5719   36.1422 O   0  0  0  0  0  0  0  0  0  0  0  0
   35.9375  -21.4130   37.1206 C   0  0  0  0  0  0  0  0  0  0  0  0
   36.7729  -22.6759   37.3029 C   0  0  0  0  0  0  0  0  0  0  0  0
   38.1568  -22.2914   37.7262 C   0  0  0  0  0  0  0  0  0  0  0  0
   38.3988  -22.5691   39.1336 N   0  0  0  0  0  0  0  0  0  0  0  0
   39.6251  -23.2925   39.2820 C   0  0  0  0  0  0  0  0  0  0  0  0
   40.4934  -22.6166   40.2905 C   0  0  0  0  0  0  0  0  0  0  0  0
   39.7623  -21.3698   40.6492 C   0  0  0  0  0  0  0  0  0  0  0  0
   40.5664  -20.2471   40.4670 F   0  0  0  0  0  0  0  0  0  0  0  0
   38.5166  -21.3124   39.8264 C   0  0  0  0  0  0  0  0  0  0  0  0
 16 17  1  0  0  0
 17  1  1  0  0  0
  1  2  2  0  0  0
  2  3  1  0  0  0
  3  4  2  0  0  0
  4  5  1  0  0  0
  5  6  2  0  0  0
  6 18  1  0  0  0
 18 19  1  0  0  0
 19 20  1  0  0  0
 20 21  1  0  0  0
 21 22  1  0  0  0
 22 23  1  0  0  0
 23 24  1  0  0  0
 24 25  1  0  0  0
 25 26  1  0  0  0
 25 27  1  0  0  0
  4  7  1  0  0  0
  7  8  2  0  0  0
  8  9  1  0  0  0
  8 10  1  0  0  0
 10 11  1  0  0  0
 11 12  1  0  0  0
 12 13  1  0  0  0
  6  1  1  0  0  0
 27 22  1  0  0  0
 13 10  1  0  0  0
 10  3  1  0  0  0
  9 14  1  0  0  0
  9 15  1  0  0  0
M  END
> <minimizedAffinity>
-5.28018

> <CNNscore>
0.3908121288

> <CNNaffinity>
4.8649654388

> <CNN_VS>
1.9012875557

> <CNNaffinity_variance>
0.1992285699

$$$$
[H]c1c2c(c([H])c(OC([H])([H])[H])c1OC([H])([H])C([H])([H])C([H])([H])N1C([H])([H])C([H])([H])[C@@]([H])(F)C1([H])[H])C1(C(N([H])[H])=N2)C([H])([H])C([H])([H])C1([H])[H]


 27 30  0  0  0  0  0  0  0  0999 V2000
   36.0758  -18.8484   36.3995 C   0  0  0  0  0  0  0  0  0  0  0  0
   37.3790  -19.2799   36.3512 C   0  0  0  0  0  0  0  0  0  0  0  0
   38.2062  -18.9993   35.2580 C   0  0  0  0  0  0  0  0  0  0  0  0
   37.7130  -18.2733   34.1979 C   0  0  0  0  0  0  0  0  0  0  0  0
   36.3932  -17.8447   34.2628 C   0  0  0  0  0  0  0  0  0  0  0  0
   35.5614  -18.1084   35.3261 C   0  0  0  0  0  0  0  0  0  0  0  0
   38.7541  -18.1358   33.2424 N   0  0  0  0  0  0  0  0  0  0  0  0
   39.8378  -18.7151   33.6285 C   0  0  0  0  0  0  0  0  0  0  0  0
   41.0863  -18.7821   32.9263 N   0  0  0  0  0  0  0  0  0  0  0  0
   39.5983  -19.3181   34.9331 C   0  0  0  0  0  0  0  0  0  0  0  0
   39.9954  -20.7636   35.0859 C   0  0  0  0  0  0  0  0  0  0  0  0
   41.2997  -20.3079   35.6972 C   0  0  0  0  0  0  0  0  0  0  0  0
   40.6081  -18.9825   36.0097 C   0  0  0  0  0  0  0  0  0  0  0  0
   41.5876  -17.9186   32.6679 H   0  0  0  0  0  0  0  0  0  0  0  0
   41.4843  -19.6987   32.6778 H   0  0  0  0  0  0  0  0  0  0  0  0
   34.5240  -20.2801   37.6974 C   0  0  0  0  0  0  0  0  0  0  0  0
   35.2023  -19.0887   37.4458 O   0  0  0  0  0  0  0  0  0  0  0  0
   34.2435  -17.6642   35.3577 O   0  0  0  0  0  0  0  0  0  0  0  0
   33.4333  -17.8804   34.2337 C   0  0  0  0  0  0  0  0  0  0  0  0
   32.2422  -18.7722   34.5685 C   0  0  0  0  0  0  0  0  0  0  0  0
   32.6068  -20.1991   34.2980 C   0  0  0  0  0  0  0  0  0  0  0  0
   31.5304  -21.1162   34.6395 N   0  0  0  0  0  0  0  0  0  0  0  0
   32.0022  -22.4660   34.5703 C   0  0  0  0  0  0  0  0  0  0  0  0
   31.6755  -23.1826   35.8383 C   0  0  0  0  0  0  0  0  0  0  0  0
   31.0861  -22.1411   36.7244 C   0  0  0  0  0  0  0  0  0  0  0  0
   31.7630  -22.0756   37.9401 F   0  0  0  0  0  0  0  0  0  0  0  0
   31.1155  -20.8402   35.9904 C   0  0  0  0  0  0  0  0  0  0  0  0
 16 17  1  0  0  0
 17  1  1  0  0  0
  1  2  2  0  0  0
  2  3  1  0  0  0
  3  4  2  0  0  0
  4  5  1  0  0  0
  5  6  2  0  0  0
  6 18  1  0  0  0
 18 19  1  0  0  0
 19 20  1  0  0  0
 20 21  1  0  0  0
 21 22  1  0  0  0
 22 23  1  0  0  0
 23 24  1  0  0  0
 24 25  1  0  0  0
 25 26  1  0  0  0
 25 27  1  0  0  0
  4  7  1  0  0  0
  7  8  2  0  0  0
  8  9  1  0  0  0
  8 10  1  0  0  0
 10 11  1  0  0  0
 11 12  1  0  0  0
 12 13  1  0  0  0
  6  1  1  0  0  0
 27 22  1  0  0  0
 13 10  1  0  0  0
 10  3  1  0  0  0
  9 14  1  0  0  0
  9 15  1  0  0  0
M  END
> <minimizedAffinity>
-5.46673

> <CNNscore>
0.3117337525

> <CNNaffinity>
4.8673515320

> <CNN_VS>
1.5173177719

> <CNNaffinity_variance>
0.3351294100

$$$$
[H]c1c2c(c([H])c(OC([H])([H])[H])c1OC([H])([H])C([H])([H])C([H])([H])N1C([H])([H])C([H])([H])[C@@]([H])(F)C1([H])[H])C1(C(N([H])[H])=N2)C([H])([H])C([H])([H])C1([H])[H]


 27 30  0  0  0  0  0  0  0  0999 V2000
   35.5559  -20.6068   37.1969 C   0  0  0  0  0  0  0  0  0  0  0  0
   34.3525  -21.1428   36.8078 C   0  0  0  0  0  0  0  0  0  0  0  0
   33.3694  -20.3666   36.1841 C   0  0  0  0  0  0  0  0  0  0  0  0
   33.6022  -19.0307   35.9490 C   0  0  0  0  0  0  0  0  0  0  0  0
   34.8242  -18.5046   36.3489 C   0  0  0  0  0  0  0  0  0  0  0  0
   35.8052  -19.2474   36.9635 C   0  0  0  0  0  0  0  0  0  0  0  0
   32.4534  -18.4943   35.3100 N   0  0  0  0  0  0  0  0  0  0  0  0
   31.5416  -19.3873   35.1359 C   0  0  0  0  0  0  0  0  0  0  0  0
   30.2554  -19.2104   34.5272 N   0  0  0  0  0  0  0  0  0  0  0  0
   32.0274  -20.6522   35.6719 C   0  0  0  0  0  0  0  0  0  0  0  0
   31.1038  -21.3787   36.6150 C   0  0  0  0  0  0  0  0  0  0  0  0
   30.6295  -22.2196   35.4527 C   0  0  0  0  0  0  0  0  0  0  0  0
   31.9283  -21.8431   34.7426 C   0  0  0  0  0  0  0  0  0  0  0  0
   30.1791  -18.8791   33.5535 H   0  0  0  0  0  0  0  0  0  0  0  0
   29.4024  -19.4147   35.0665 H   0  0  0  0  0  0  0  0  0  0  0  0
   36.6208  -21.6778   39.1619 C   0  0  0  0  0  0  0  0  0  0  0  0
   36.5716  -21.3129   37.8176 O   0  0  0  0  0  0  0  0  0  0  0  0
   37.0180  -18.6876   37.3519 O   0  0  0  0  0  0  0  0  0  0  0  0
   38.0592  -18.6206   36.4150 C   0  0  0  0  0  0  0  0  0  0  0  0
   39.2705  -19.4285   36.8691 C   0  0  0  0  0  0  0  0  0  0  0  0
   40.4975  -18.8897   36.2011 C   0  0  0  0  0  0  0  0  0  0  0  0
   41.7200  -19.4107   36.7932 N   0  0  0  0  0  0  0  0  0  0  0  0
   42.6901  -18.3640   36.9047 C   0  0  0  0  0  0  0  0  0  0  0  0
   43.2175  -18.3083   38.2999 C   0  0  0  0  0  0  0  0  0  0  0  0
   42.4116  -19.3088   39.0528 C   0  0  0  0  0  0  0  0  0  0  0  0
   41.8114  -18.7312   40.1693 F   0  0  0  0  0  0  0  0  0  0  0  0
   41.4097  -19.8959   38.1129 C   0  0  0  0  0  0  0  0  0  0  0  0
 16 17  1  0  0  0
 17  1  1  0  0  0
  1  2  2  0  0  0
  2  3  1  0  0  0
  3  4  2  0  0  0
  4  5  1  0  0  0
  5  6  2  0  0  0
  6 18  1  0  0  0
 18 19  1  0  0  0
 19 20  1  0  0  0
 20 21  1  0  0  0
 21 22  1  0  0  0
 22 23  1  0  0  0
 23 24  1  0  0  0
 24 25  1  0  0  0
 25 26  1  0  0  0
 25 27  1  0  0  0
  4  7  1  0  0  0
  7  8  2  0  0  0
  8  9  1  0  0  0
  8 10  1  0  0  0
 10 11  1  0  0  0
 11 12  1  0  0  0
 12 13  1  0  0  0
  6  1  1  0  0  0
 27 22  1  0  0  0
 13 10  1  0  0  0
 10  3  1  0  0  0
  9 14  1  0  0  0
  9 15  1  0  0  0
M  END
> <minimizedAffinity>
-4.84841

> <CNNscore>
0.2849436402

> <CNNaffinity>
4.3252997398

> <CNN_VS>
1.2324666977

> <CNNaffinity_variance>
0.3725752234

$$$$
[H]c1c(-c2nc3c([H])c(OC([H])([H])C([H])([H])C([H])([H])N4C([H])([H])C([H])([H])C([H])([H])C4([H])[H])c(OC([H])([H])[H])c([H])c3c(N([H])C3([H])C([H])([H])C([H])([H])N(C4([H])C([H])([H])C4([H])[H])C([H])([H])C3([H])[H])c2[H])oc(C([H])([H])[H])c1[H]


 38 43  0  0  0  0  0  0  0  0999 V2000
   36.2238  -13.9233   36.7154 C   0  0  0  0  0  0  0  0  0  0  0  0
   36.6169  -15.2186   36.3603 C   0  0  0  0  0  0  0  0  0  0  0  0
   35.7157  -16.2209   36.0555 C   0  0  0  0  0  0  0  0  0  0  0  0
   36.0849  -17.5094   35.7041 C   0  0  0  0  0  0  0  0  0  0  0  0
   35.0890  -18.4550   35.4149 C   0  0  0  0  0  0  0  0  0  0  0  0
   33.7489  -18.1537   35.4656 C   0  0  0  0  0  0  0  0  0  0  0  0
   33.4235  -16.8988   35.8086 N   0  0  0  0  0  0  0  0  0  0  0  0
   34.3542  -15.9581   36.0953 C   0  0  0  0  0  0  0  0  0  0  0  0
   33.9743  -14.6793   36.4460 C   0  0  0  0  0  0  0  0  0  0  0  0
   34.8728  -13.6787   36.7506 C   0  0  0  0  0  0  0  0  0  0  0  0
   32.7231  -19.1572   35.1562 C   0  0  0  0  0  0  0  0  0  0  0  0
   32.8651  -20.1860   34.2535 C   0  0  0  0  0  0  0  0  0  0  0  0
   31.6900  -20.9031   34.2488 C   0  0  0  0  0  0  0  0  0  0  0  0
   30.8735  -20.2584   35.1717 C   0  0  0  0  0  0  0  0  0  0  0  0
   29.4903  -20.6552   35.5289 C   0  0  0  0  0  0  0  0  0  0  0  0
   31.5257  -19.2393   35.6774 O   0  0  0  0  0  0  0  0  0  0  0  0
   38.3744  -13.3352   37.6672 C   0  0  0  0  0  0  0  0  0  0  0  0
   37.1690  -12.9516   37.0123 O   0  0  0  0  0  0  0  0  0  0  0  0
   37.4464  -17.8518   35.6535 N   0  0  0  0  0  0  0  0  0  0  0  0
   38.0646  -17.4461   34.9269 H   0  0  0  0  0  0  0  0  0  0  0  0
   38.0905  -18.7704   36.5814 C   0  0  0  0  0  0  0  0  0  0  0  0
   37.5532  -20.1680   36.5255 C   0  0  0  0  0  0  0  0  0  0  0  0
   38.6879  -21.1610   36.2235 C   0  0  0  0  0  0  0  0  0  0  0  0
   39.2272  -20.7670   34.9392 N   0  0  0  0  0  0  0  0  0  0  0  0
   39.9318  -19.5420   35.0768 C   0  0  0  0  0  0  0  0  0  0  0  0
   39.5880  -18.8029   36.3577 C   0  0  0  0  0  0  0  0  0  0  0  0
   39.9113  -21.8426   34.3037 C   0  0  0  0  0  0  0  0  0  0  0  0
   41.0319  -22.5588   34.9445 C   0  0  0  0  0  0  0  0  0  0  0  0
   39.6957  -23.2575   34.5936 C   0  0  0  0  0  0  0  0  0  0  0  0
   34.4034  -12.4014   37.0993 O   0  0  0  0  0  0  0  0  0  0  0  0
   33.4066  -12.2417   38.0944 C   0  0  0  0  0  0  0  0  0  0  0  0
   32.4297  -11.1501   37.6372 C   0  0  0  0  0  0  0  0  0  0  0  0
   31.1103  -11.7887   37.3269 C   0  0  0  0  0  0  0  0  0  0  0  0
   30.1136  -11.5162   38.3122 N   0  0  0  0  0  0  0  0  0  0  0  0
   29.6883  -12.6572   39.0541 C   0  0  0  0  0  0  0  0  0  0  0  0
   28.2284  -12.3768   39.3826 C   0  0  0  0  0  0  0  0  0  0  0  0
   27.7630  -11.6736   38.1204 C   0  0  0  0  0  0  0  0  0  0  0  0
   28.9801  -10.8437   37.7686 C   0  0  0  0  0  0  0  0  0  0  0  0
 17 18  1  0  0  0
 18  1  1  0  0  0
  1  2  2  0  0  0
  2  3  1  0  0  0
  3  4  2  0  0  0
  4 19  1  0  0  0
 19 21  1  0  0  0
 21 22  1  0  0  0
 22 23  1  0  0  0
 23 24  1  0  0  0
 24 25  1  0  0  0
 25 26  1  0  0  0
 24 27  1  0  0  0
 27 28  1  0  0  0
 28 29  1  0  0  0
  4  5  1  0  0  0
  5  6  2  0  0  0
  6  7  1  0  0  0
  7  8  2  0  0  0
  8  9  1  0  0  0
  9 10  2  0  0  0
 10 30  1  0  0  0
 30 31  1  0  0  0
 31 32  1  0  0  0
 32 33  1  0  0  0
 33 34  1  0  0  0
 34 35  1  0  0  0
 35 36  1  0  0  0
 36 37  1  0  0  0
 37 38  1  0  0  0
  6 11  1  0  0  0
 11 12  2  0  0  0
 12 13  1  0  0  0
 13 14  2  0  0  0
 14 15  1  0  0  0
 14 16  1  0  0  0
 10  1  1  0  0  0
 38 34  1  0  0  0
 16 11  1  0  0  0
  8  3  1  0  0  0
 26 21  1  0  0  0
 29 27  1  0  0  0
 19 20  1  0  0  0
M  END
> <minimizedAffinity>
-8.30684

> <CNNscore>
0.6645917892

> <CNNaffinity>
7.2323369980

> <CNN_VS>
4.8065519333

> <CNNaffinity_variance>
0.1510420293

$$$$
[H]c1c(-c2nc3c([H])c(OC([H])([H])C([H])([H])C([H])([H])N4C([H])([H])C([H])([H])C([H])([H])C4([H])[H])c(OC([H])([H])[H])c([H])c3c(N([H])C3([H])C([H])([H])C([H])([H])N(C4([H])C([H])([H])C4([H])[H])C([H])([H])C3([H])[H])c2[H])oc(C([H])([H])[H])c1[H]


 38 43  0  0  0  0  0  0  0  0999 V2000
   36.1990  -13.7654   36.7547 C   0  0  0  0  0  0  0  0  0  0  0  0
   36.6050  -15.0699   36.4516 C   0  0  0  0  0  0  0  0  0  0  0  0
   35.7165  -16.0785   36.1306 C   0  0  0  0  0  0  0  0  0  0  0  0
   36.0986  -17.3760   35.8299 C   0  0  0  0  0  0  0  0  0  0  0  0
   35.1150  -18.3274   35.5185 C   0  0  0  0  0  0  0  0  0  0  0  0
   33.7747  -18.0231   35.4984 C   0  0  0  0  0  0  0  0  0  0  0  0
   33.4368  -16.7594   35.7936 N   0  0  0  0  0  0  0  0  0  0  0  0
   34.3553  -15.8129   36.0996 C   0  0  0  0  0  0  0  0  0  0  0  0
   33.9626  -14.5250   36.3993 C   0  0  0  0  0  0  0  0  0  0  0  0
   34.8484  -13.5181   36.7201 C   0  0  0  0  0  0  0  0  0  0  0  0
   32.7619  -19.0329   35.1670 C   0  0  0  0  0  0  0  0  0  0  0  0
   32.9046  -20.0191   34.2180 C   0  0  0  0  0  0  0  0  0  0  0  0
   31.7436  -20.7588   34.2062 C   0  0  0  0  0  0  0  0  0  0  0  0
   30.9346  -20.1705   35.1724 C   0  0  0  0  0  0  0  0  0  0  0  0
   29.5670  -20.6098   35.5401 C   0  0  0  0  0  0  0  0  0  0  0  0
   31.5777  -19.1610   35.7082 O   0  0  0  0  0  0  0  0  0  0  0  0
   38.4167  -13.1828   37.5416 C   0  0  0  0  0  0  0  0  0  0  0  0
   37.1316  -12.7876   37.0707 O   0  0  0  0  0  0  0  0  0  0  0  0
   37.4601  -17.7215   35.8521 N   0  0  0  0  0  0  0  0  0  0  0  0
   38.1610  -17.0735   36.2564 H   0  0  0  0  0  0  0  0  0  0  0  0
   37.9916  -18.9731   35.3318 C   0  0  0  0  0  0  0  0  0  0  0  0
   38.8397  -18.8116   34.1072 C   0  0  0  0  0  0  0  0  0  0  0  0
   40.2372  -19.4068   34.3474 C   0  0  0  0  0  0  0  0  0  0  0  0
   40.7962  -18.6679   35.4596 N   0  0  0  0  0  0  0  0  0  0  0  0
   40.1130  -19.0198   36.6536 C   0  0  0  0  0  0  0  0  0  0  0  0
   38.7841  -19.7066   36.3937 C   0  0  0  0  0  0  0  0  0  0  0  0
   42.2186  -18.7421   35.4786 C   0  0  0  0  0  0  0  0  0  0  0  0
   43.0521  -18.2754   34.3532 C   0  0  0  0  0  0  0  0  0  0  0  0
   43.1101  -17.6188   35.7540 C   0  0  0  0  0  0  0  0  0  0  0  0
   34.3664  -12.2317   37.0136 O   0  0  0  0  0  0  0  0  0  0  0  0
   33.4615  -12.0230   38.0846 C   0  0  0  0  0  0  0  0  0  0  0  0
   32.2967  -11.1609   37.5798 C   0  0  0  0  0  0  0  0  0  0  0  0
   31.1520  -12.0617   37.2292 C   0  0  0  0  0  0  0  0  0  0  0  0
   29.8797  -11.4929   37.5394 N   0  0  0  0  0  0  0  0  0  0  0  0
   29.9249  -10.1236   37.9344 C   0  0  0  0  0  0  0  0  0  0  0  0
   28.7748   -9.9723   38.9205 C   0  0  0  0  0  0  0  0  0  0  0  0
   28.8163  -11.3071   39.6422 C   0  0  0  0  0  0  0  0  0  0  0  0
   29.1661  -12.2528   38.5121 C   0  0  0  0  0  0  0  0  0  0  0  0
 17 18  1  0  0  0
 18  1  1  0  0  0
  1  2  2  0  0  0
  2  3  1  0  0  0
  3  4  2  0  0  0
  4 19  1  0  0  0
 19 21  1  0  0  0
 21 22  1  0  0  0
 22 23  1  0  0  0
 23 24  1  0  0  0
 24 25  1  0  0  0
 25 26  1  0  0  0
 24 27  1  0  0  0
 27 28  1  0  0  0
 28 29  1  0  0  0
  4  5  1  0  0  0
  5  6  2  0  0  0
  6  7  1  0  0  0
  7  8  2  0  0  0
  8  9  1  0  0  0
  9 10  2  0  0  0
 10 30  1  0  0  0
 30 31  1  0  0  0
 31 32  1  0  0  0
 32 33  1  0  0  0
 33 34  1  0  0  0
 34 35  1  0  0  0
 35 36  1  0  0  0
 36 37  1  0  0  0
 37 38  1  0  0  0
  6 11  1  0  0  0
 11 12  2  0  0  0
 12 13  1  0  0  0
 13 14  2  0  0  0
 14 15  1  0  0  0
 14 16  1  0  0  0
 10  1  1  0  0  0
 38 34  1  0  0  0
 16 11  1  0  0  0
  8  3  1  0  0  0
 26 21  1  0  0  0
 29 27  1  0  0  0
 19 20  1  0  0  0
M  END
> <minimizedAffinity>
-8.66838

> <CNNscore>
0.6520251632

> <CNNaffinity>
7.2698111534

> <CNN_VS>
4.7400999069

> <CNNaffinity_variance>
0.1139202118

$$$$
[H]c1c(-c2nc3c([H])c(OC([H])([H])C([H])([H])C([H])([H])N4C([H])([H])C([H])([H])C([H])([H])C4([H])[H])c(OC([H])([H])[H])c([H])c3c(N([H])C3([H])C([H])([H])C([H])([H])N(C4([H])C([H])([H])C4([H])[H])C([H])([H])C3([H])[H])c2[H])oc(C([H])([H])[H])c1[H]


 38 43  0  0  0  0  0  0  0  0999 V2000
   36.1726  -14.1383   36.5038 C   0  0  0  0  0  0  0  0  0  0  0  0
   36.5757  -15.4195   36.1107 C   0  0  0  0  0  0  0  0  0  0  0  0
   35.6837  -16.4459   35.8642 C   0  0  0  0  0  0  0  0  0  0  0  0
   36.0632  -17.7209   35.4765 C   0  0  0  0  0  0  0  0  0  0  0  0
   35.0764  -18.6935   35.2529 C   0  0  0  0  0  0  0  0  0  0  0  0
   33.7354  -18.4317   35.4033 C   0  0  0  0  0  0  0  0  0  0  0  0
   33.4001  -17.1889   35.7792 N   0  0  0  0  0  0  0  0  0  0  0  0
   34.3218  -16.2232   36.0050 C   0  0  0  0  0  0  0  0  0  0  0  0
   33.9320  -14.9580   36.3927 C   0  0  0  0  0  0  0  0  0  0  0  0
   34.8213  -13.9335   36.6392 C   0  0  0  0  0  0  0  0  0  0  0  0
   32.7189  -19.4629   35.1613 C   0  0  0  0  0  0  0  0  0  0  0  0
   32.8414  -20.5055   34.2716 C   0  0  0  0  0  0  0  0  0  0  0  0
   31.6837  -21.2477   34.3358 C   0  0  0  0  0  0  0  0  0  0  0  0
   30.8974  -20.6032   35.2846 C   0  0  0  0  0  0  0  0  0  0  0  0
   29.5417  -21.0228   35.7142 C   0  0  0  0  0  0  0  0  0  0  0  0
   31.5496  -19.5607   35.7401 O   0  0  0  0  0  0  0  0  0  0  0  0
   38.2258  -13.4238   37.5764 C   0  0  0  0  0  0  0  0  0  0  0  0
   37.1086  -13.1413   36.7390 O   0  0  0  0  0  0  0  0  0  0  0  0
   37.4266  -18.0232   35.3243 N   0  0  0  0  0  0  0  0  0  0  0  0
   37.9086  -17.8423   34.4245 H   0  0  0  0  0  0  0  0  0  0  0  0
   38.2568  -18.5941   36.3753 C   0  0  0  0  0  0  0  0  0  0  0  0
   37.5124  -18.9028   37.6385 C   0  0  0  0  0  0  0  0  0  0  0  0
   37.6744  -20.3886   38.0001 C   0  0  0  0  0  0  0  0  0  0  0  0
   37.1230  -21.1296   36.8855 N   0  0  0  0  0  0  0  0  0  0  0  0
   37.9800  -21.0013   35.7607 C   0  0  0  0  0  0  0  0  0  0  0  0
   38.9570  -19.8464   35.8906 C   0  0  0  0  0  0  0  0  0  0  0  0
   36.7439  -22.4486   37.2669 C   0  0  0  0  0  0  0  0  0  0  0  0
   35.7453  -22.7132   38.3214 C   0  0  0  0  0  0  0  0  0  0  0  0
   35.5177  -23.1203   36.8452 C   0  0  0  0  0  0  0  0  0  0  0  0
   34.3421  -12.6725   37.0313 O   0  0  0  0  0  0  0  0  0  0  0  0
   33.2362  -12.5582   37.9107 C   0  0  0  0  0  0  0  0  0  0  0  0
   31.9671  -12.3438   37.0751 C   0  0  0  0  0  0  0  0  0  0  0  0
   31.0194  -11.4857   37.8564 C   0  0  0  0  0  0  0  0  0  0  0  0
   29.6852  -11.9939   37.8654 N   0  0  0  0  0  0  0  0  0  0  0  0
   28.6799  -11.0203   37.5924 C   0  0  0  0  0  0  0  0  0  0  0  0
   27.4714  -11.4838   38.3940 C   0  0  0  0  0  0  0  0  0  0  0  0
   28.1306  -12.0348   39.6454 C   0  0  0  0  0  0  0  0  0  0  0  0
   29.3736  -12.6842   39.0733 C   0  0  0  0  0  0  0  0  0  0  0  0
 17 18  1  0  0  0
 18  1  1  0  0  0
  1  2  2  0  0  0
  2  3  1  0  0  0
  3  4  2  0  0  0
  4 19  1  0  0  0
 19 21  1  0  0  0
 21 22  1  0  0  0
 22 23  1  0  0  0
 23 24  1  0  0  0
 24 25  1  0  0  0
 25 26  1  0  0  0
 24 27  1  0  0  0
 27 28  1  0  0  0
 28 29  1  0  0  0
  4  5  1  0  0  0
  5  6  2  0  0  0
  6  7  1  0  0  0
  7  8  2  0  0  0
  8  9  1  0  0  0
  9 10  2  0  0  0
 10 30  1  0  0  0
 30 31  1  0  0  0
 31 32  1  0  0  0
 32 33  1  0  0  0
 33 34  1  0  0  0
 34 35  1  0  0  0
 35 36  1  0  0  0
 36 37  1  0  0  0
 37 38  1  0  0  0
  6 11  1  0  0  0
 11 12  2  0  0  0
 12 13  1  0  0  0
 13 14  2  0  0  0
 14 15  1  0  0  0
 14 16  1  0  0  0
 10  1  1  0  0  0
 38 34  1  0  0  0
 16 11  1  0  0  0
  8  3  1  0  0  0
 26 21  1  0  0  0
 29 27  1  0  0  0
 19 20  1  0  0  0
M  END
> <minimizedAffinity>
-7.44867

> <CNNscore>
0.5101495385

> <CNNaffinity>
7.0992660522

> <CNN_VS>
3.6216874123

> <CNNaffinity_variance>
0.1322000027

$$$$
[H]c1c(-c2nc3c([H])c(OC([H])([H])C([H])([H])C([H])([H])N4C([H])([H])C([H])([H])C([H])([H])C4([H])[H])c(OC([H])([H])[H])c([H])c3c(N([H])C3([H])C([H])([H])C([H])([H])N(C4([H])C([H])([H])C4([H])[H])C([H])([H])C3([H])[H])c2[H])oc(C([H])([H])[H])c1[H]


 38 43  0  0  0  0  0  0  0  0999 V2000
   36.2515  -14.8742   36.4443 C   0  0  0  0  0  0  0  0  0  0  0  0
   36.4934  -16.2455   36.5833 C   0  0  0  0  0  0  0  0  0  0  0  0
   35.5226  -17.2057   36.3701 C   0  0  0  0  0  0  0  0  0  0  0  0
   35.7419  -18.5673   36.5048 C   0  0  0  0  0  0  0  0  0  0  0  0
   34.6857  -19.4603   36.2668 C   0  0  0  0  0  0  0  0  0  0  0  0
   33.4301  -19.0370   35.9014 C   0  0  0  0  0  0  0  0  0  0  0  0
   33.2495  -17.7138   35.7793 N   0  0  0  0  0  0  0  0  0  0  0  0
   34.2423  -16.8203   36.0006 C   0  0  0  0  0  0  0  0  0  0  0  0
   34.0114  -15.4670   35.8654 C   0  0  0  0  0  0  0  0  0  0  0  0
   34.9793  -14.5083   36.0783 C   0  0  0  0  0  0  0  0  0  0  0  0
   32.3397  -19.9883   35.6540 C   0  0  0  0  0  0  0  0  0  0  0  0
   32.4511  -21.1533   34.9302 C   0  0  0  0  0  0  0  0  0  0  0  0
   31.2168  -21.7630   34.9271 C   0  0  0  0  0  0  0  0  0  0  0  0
   30.3979  -20.9172   35.6676 C   0  0  0  0  0  0  0  0  0  0  0  0
   28.9602  -21.1380   35.9549 C   0  0  0  0  0  0  0  0  0  0  0  0
   31.1041  -19.8891   36.0727 O   0  0  0  0  0  0  0  0  0  0  0  0
   37.8341  -13.8526   37.9703 C   0  0  0  0  0  0  0  0  0  0  0  0
   37.2613  -13.9495   36.6696 O   0  0  0  0  0  0  0  0  0  0  0  0
   37.0115  -19.0314   36.8872 N   0  0  0  0  0  0  0  0  0  0  0  0
   37.5150  -18.5935   37.6806 H   0  0  0  0  0  0  0  0  0  0  0  0
   37.7093  -20.1284   36.2321 C   0  0  0  0  0  0  0  0  0  0  0  0
   37.6005  -20.1126   34.7378 C   0  0  0  0  0  0  0  0  0  0  0  0
   39.0014  -20.0853   34.1041 C   0  0  0  0  0  0  0  0  0  0  0  0
   39.6299  -18.8735   34.5855 N   0  0  0  0  0  0  0  0  0  0  0  0
   39.9300  -19.0116   35.9664 C   0  0  0  0  0  0  0  0  0  0  0  0
   39.1717  -20.1501   36.6251 C   0  0  0  0  0  0  0  0  0  0  0  0
   40.6880  -18.4538   33.7291 C   0  0  0  0  0  0  0  0  0  0  0  0
   42.0848  -18.3381   34.1925 C   0  0  0  0  0  0  0  0  0  0  0  0
   41.6565  -19.3465   33.0986 C   0  0  0  0  0  0  0  0  0  0  0  0
   34.6621  -13.1490   35.9199 O   0  0  0  0  0  0  0  0  0  0  0  0
   34.4548  -12.3163   37.0482 C   0  0  0  0  0  0  0  0  0  0  0  0
   33.1102  -12.6862   37.6886 C   0  0  0  0  0  0  0  0  0  0  0  0
   32.2278  -11.4752   37.6810 C   0  0  0  0  0  0  0  0  0  0  0  0
   30.8437  -11.7949   37.5384 N   0  0  0  0  0  0  0  0  0  0  0  0
   30.0002  -10.6723   37.2903 C   0  0  0  0  0  0  0  0  0  0  0  0
   28.6763  -11.0365   37.9480 C   0  0  0  0  0  0  0  0  0  0  0  0
   29.1464  -11.7829   39.1833 C   0  0  0  0  0  0  0  0  0  0  0  0
   30.3407  -12.5420   38.6437 C   0  0  0  0  0  0  0  0  0  0  0  0
 17 18  1  0  0  0
 18  1  1  0  0  0
  1  2  2  0  0  0
  2  3  1  0  0  0
  3  4  2  0  0  0
  4 19  1  0  0  0
 19 21  1  0  0  0
 21 22  1  0  0  0
 22 23  1  0  0  0
 23 24  1  0  0  0
 24 25  1  0  0  0
 25 26  1  0  0  0
 24 27  1  0  0  0
 27 28  1  0  0  0
 28 29  1  0  0  0
  4  5  1  0  0  0
  5  6  2  0  0  0
  6  7  1  0  0  0
  7  8  2  0  0  0
  8  9  1  0  0  0
  9 10  2  0  0  0
 10 30  1  0  0  0
 30 31  1  0  0  0
 31 32  1  0  0  0
 32 33  1  0  0  0
 33 34  1  0  0  0
 34 35  1  0  0  0
 35 36  1  0  0  0
 36 37  1  0  0  0
 37 38  1  0  0  0
  6 11  1  0  0  0
 11 12  2  0  0  0
 12 13  1  0  0  0
 13 14  2  0  0  0
 14 15  1  0  0  0
 14 16  1  0  0  0
 10  1  1  0  0  0
 38 34  1  0  0  0
 16 11  1  0  0  0
  8  3  1  0  0  0
 26 21  1  0  0  0
 29 27  1  0  0  0
 19 20  1  0  0  0
M  END
> <minimizedAffinity>
-8.25193

> <CNNscore>
0.4853573442

> <CNNaffinity>
6.9083986282

> <CNN_VS>
3.3530421257

> <CNNaffinity_variance>
0.2103475779

$$$$
[H]c1c(-c2nc3c([H])c(OC([H])([H])C([H])([H])C([H])([H])N4C([H])([H])C([H])([H])C([H])([H])C4([H])[H])c(OC([H])([H])[H])c([H])c3c(N([H])C3([H])C([H])([H])C([H])([H])N(C4([H])C([H])([H])C4([H])[H])C([H])([H])C3([H])[H])c2[H])oc(C([H])([H])[H])c1[H]


 38 43  0  0  0  0  0  0  0  0999 V2000
   36.1547  -14.2901   36.6903 C   0  0  0  0  0  0  0  0  0  0  0  0
   36.7360  -15.5620   36.6382 C   0  0  0  0  0  0  0  0  0  0  0  0
   36.0257  -16.7003   36.3070 C   0  0  0  0  0  0  0  0  0  0  0  0
   36.5824  -17.9680   36.2522 C   0  0  0  0  0  0  0  0  0  0  0  0
   35.7718  -19.0602   35.9064 C   0  0  0  0  0  0  0  0  0  0  0  0
   34.4352  -18.9240   35.6162 C   0  0  0  0  0  0  0  0  0  0  0  0
   33.9260  -17.6850   35.6778 N   0  0  0  0  0  0  0  0  0  0  0  0
   34.6745  -16.6060   36.0078 C   0  0  0  0  0  0  0  0  0  0  0  0
   34.1085  -15.3492   36.0611 C   0  0  0  0  0  0  0  0  0  0  0  0
   34.8163  -14.2130   36.3919 C   0  0  0  0  0  0  0  0  0  0  0  0
   33.6055  -20.0795   35.2536 C   0  0  0  0  0  0  0  0  0  0  0  0
   32.8941  -20.2104   34.0830 C   0  0  0  0  0  0  0  0  0  0  0  0
   32.2492  -21.4261   34.1195 C   0  0  0  0  0  0  0  0  0  0  0  0
   32.6105  -21.9864   35.3401 C   0  0  0  0  0  0  0  0  0  0  0  0
   32.1683  -23.3062   35.8509 C   0  0  0  0  0  0  0  0  0  0  0  0
   33.4080  -21.1570   35.9692 O   0  0  0  0  0  0  0  0  0  0  0  0
   38.1789  -13.3656   37.6520 C   0  0  0  0  0  0  0  0  0  0  0  0
   36.9121  -13.1775   37.0284 O   0  0  0  0  0  0  0  0  0  0  0  0
   37.9435  -18.1420   36.5535 N   0  0  0  0  0  0  0  0  0  0  0  0
   38.4314  -17.4808   37.1854 H   0  0  0  0  0  0  0  0  0  0  0  0
   38.7620  -19.2256   36.0286 C   0  0  0  0  0  0  0  0  0  0  0  0
   40.2347  -18.9540   36.0770 C   0  0  0  0  0  0  0  0  0  0  0  0
   40.9516  -20.0563   36.8743 C   0  0  0  0  0  0  0  0  0  0  0  0
   40.3793  -20.0193   38.2034 N   0  0  0  0  0  0  0  0  0  0  0  0
   39.0452  -20.5034   38.1585 C   0  0  0  0  0  0  0  0  0  0  0  0
   38.4705  -20.5230   36.7533 C   0  0  0  0  0  0  0  0  0  0  0  0
   41.2504  -20.6026   39.1677 C   0  0  0  0  0  0  0  0  0  0  0  0
   42.5012  -19.9509   39.6035 C   0  0  0  0  0  0  0  0  0  0  0  0
   41.3226  -20.2119   40.5729 C   0  0  0  0  0  0  0  0  0  0  0  0
   34.1643  -12.9691   36.4240 O   0  0  0  0  0  0  0  0  0  0  0  0
   33.8011  -12.3722   37.6574 C   0  0  0  0  0  0  0  0  0  0  0  0
   32.3446  -12.7416   37.9692 C   0  0  0  0  0  0  0  0  0  0  0  0
   31.4498  -11.6884   37.3905 C   0  0  0  0  0  0  0  0  0  0  0  0
   30.0677  -11.9191   37.6642 N   0  0  0  0  0  0  0  0  0  0  0  0
   29.2453  -10.7579   37.5739 C   0  0  0  0  0  0  0  0  0  0  0  0
   28.1448  -10.9883   38.6004 C   0  0  0  0  0  0  0  0  0  0  0  0
   28.9072  -11.6889   39.7104 C   0  0  0  0  0  0  0  0  0  0  0  0
   29.8611  -12.5607   38.9206 C   0  0  0  0  0  0  0  0  0  0  0  0
 17 18  1  0  0  0
 18  1  1  0  0  0
  1  2  2  0  0  0
  2  3  1  0  0  0
  3  4  2  0  0  0
  4 19  1  0  0  0
 19 21  1  0  0  0
 21 22  1  0  0  0
 22 23  1  0  0  0
 23 24  1  0  0  0
 24 25  1  0  0  0
 25 26  1  0  0  0
 24 27  1  0  0  0
 27 28  1  0  0  0
 28 29  1  0  0  0
  4  5  1  0  0  0
  5  6  2  0  0  0
  6  7  1  0  0  0
  7  8  2  0  0  0
  8  9  1  0  0  0
  9 10  2  0  0  0
 10 30  1  0  0  0
 30 31  1  0  0  0
 31 32  1  0  0  0
 32 33  1  0  0  0
 33 34  1  0  0  0
 34 35  1  0  0  0
 35 36  1  0  0  0
 36 37  1  0  0  0
 37 38  1  0  0  0
  6 11  1  0  0  0
 11 12  2  0  0  0
 12 13  1  0  0  0
 13 14  2  0  0  0
 14 15  1  0  0  0
 14 16  1  0  0  0
 10  1  1  0  0  0
 38 34  1  0  0  0
 16 11  1  0  0  0
  8  3  1  0  0  0
 26 21  1  0  0  0
 29 27  1  0  0  0
 19 20  1  0  0  0
M  END
> <minimizedAffinity>
-8.17687

> <CNNscore>
0.4841703773

> <CNNaffinity>
6.7696433067

> <CNN_VS>
3.2776608467

> <CNNaffinity_variance>
0.1366027594

$$$$
[H]c1c(-c2nc3c([H])c(OC([H])([H])C([H])([H])C([H])([H])N4C([H])([H])C([H])([H])C([H])([H])C4([H])[H])c(OC([H])([H])[H])c([H])c3c(N([H])C3([H])C([H])([H])C([H])([H])N(C4([H])C([H])([H])C4([H])[H])C([H])([H])C3([H])[H])c2[H])oc(C([H])([H])[H])c1[H]


 38 43  0  0  0  0  0  0  0  0999 V2000
   36.0067  -14.9693   36.2627 C   0  0  0  0  0  0  0  0  0  0  0  0
   36.3732  -16.3194   36.2275 C   0  0  0  0  0  0  0  0  0  0  0  0
   35.4588  -17.3429   36.0659 C   0  0  0  0  0  0  0  0  0  0  0  0
   35.8016  -18.6850   36.0308 C   0  0  0  0  0  0  0  0  0  0  0  0
   34.7939  -19.6476   35.8641 C   0  0  0  0  0  0  0  0  0  0  0  0
   33.4677  -19.3116   35.7322 C   0  0  0  0  0  0  0  0  0  0  0  0
   33.1678  -18.0051   35.7702 N   0  0  0  0  0  0  0  0  0  0  0  0
   34.1105  -17.0464   35.9299 C   0  0  0  0  0  0  0  0  0  0  0  0
   33.7568  -15.7136   35.9654 C   0  0  0  0  0  0  0  0  0  0  0  0
   34.6685  -14.6918   36.1270 C   0  0  0  0  0  0  0  0  0  0  0  0
   32.4294  -20.3343   35.5556 C   0  0  0  0  0  0  0  0  0  0  0  0
   32.6028  -21.5397   34.9148 C   0  0  0  0  0  0  0  0  0  0  0  0
   31.4025  -22.2126   34.9583 C   0  0  0  0  0  0  0  0  0  0  0  0
   30.5396  -21.3615   35.6404 C   0  0  0  0  0  0  0  0  0  0  0  0
   29.1155  -21.6375   35.9470 C   0  0  0  0  0  0  0  0  0  0  0  0
   31.1900  -20.2716   35.9702 O   0  0  0  0  0  0  0  0  0  0  0  0
   37.6574  -13.8842   37.6678 C   0  0  0  0  0  0  0  0  0  0  0  0
   36.9642  -13.9785   36.4269 O   0  0  0  0  0  0  0  0  0  0  0  0
   37.1474  -19.0616   36.1733 N   0  0  0  0  0  0  0  0  0  0  0  0
   37.8299  -18.4187   36.6158 H   0  0  0  0  0  0  0  0  0  0  0  0
   37.6869  -20.3399   35.7322 C   0  0  0  0  0  0  0  0  0  0  0  0
   38.8809  -20.2194   34.8352 C   0  0  0  0  0  0  0  0  0  0  0  0
   40.0719  -20.9885   35.4310 C   0  0  0  0  0  0  0  0  0  0  0  0
   40.3331  -20.3786   36.7175 N   0  0  0  0  0  0  0  0  0  0  0  0
   39.2858  -20.7061   37.6186 C   0  0  0  0  0  0  0  0  0  0  0  0
   38.0396  -21.2153   36.9166 C   0  0  0  0  0  0  0  0  0  0  0  0
   41.6667  -20.6230   37.1543 C   0  0  0  0  0  0  0  0  0  0  0  0
   41.9848  -21.0480   38.5318 C   0  0  0  0  0  0  0  0  0  0  0  0
   42.2683  -21.9453   37.3024 C   0  0  0  0  0  0  0  0  0  0  0  0
   34.2256  -13.3589   36.1530 O   0  0  0  0  0  0  0  0  0  0  0  0
   32.8438  -13.0553   36.2415 C   0  0  0  0  0  0  0  0  0  0  0  0
   32.6178  -12.1574   37.4653 C   0  0  0  0  0  0  0  0  0  0  0  0
   33.8020  -11.2524   37.6195 C   0  0  0  0  0  0  0  0  0  0  0  0
   33.4385   -9.8810   37.7788 N   0  0  0  0  0  0  0  0  0  0  0  0
   32.0514   -9.6112   37.5889 C   0  0  0  0  0  0  0  0  0  0  0  0
   32.0115   -8.2022   37.0135 C   0  0  0  0  0  0  0  0  0  0  0  0
   33.2438   -8.2016   36.1270 C   0  0  0  0  0  0  0  0  0  0  0  0
   34.2162   -9.0127   36.9579 C   0  0  0  0  0  0  0  0  0  0  0  0
 17 18  1  0  0  0
 18  1  1  0  0  0
  1  2  2  0  0  0
  2  3  1  0  0  0
  3  4  2  0  0  0
  4 19  1  0  0  0
 19 21  1  0  0  0
 21 22  1  0  0  0
 22 23  1  0  0  0
 23 24  1  0  0  0
 24 25  1  0  0  0
 25 26  1  0  0  0
 24 27  1  0  0  0
 27 28  1  0  0  0
 28 29  1  0  0  0
  4  5  1  0  0  0
  5  6  2  0  0  0
  6  7  1  0  0  0
  7  8  2  0  0  0
  8  9  1  0  0  0
  9 10  2  0  0  0
 10 30  1  0  0  0
 30 31  1  0  0  0
 31 32  1  0  0  0
 32 33  1  0  0  0
 33 34  1  0  0  0
 34 35  1  0  0  0
 35 36  1  0  0  0
 36 37  1  0  0  0
 37 38  1  0  0  0
  6 11  1  0  0  0
 11 12  2  0  0  0
 12 13  1  0  0  0
 13 14  2  0  0  0
 14 15  1  0  0  0
 14 16  1  0  0  0
 10  1  1  0  0  0
 38 34  1  0  0  0
 16 11  1  0  0  0
  8  3  1  0  0  0
 26 21  1  0  0  0
 29 27  1  0  0  0
 19 20  1  0  0  0
M  END
> <minimizedAffinity>
-7.15723

> <CNNscore>
0.4285357594

> <CNNaffinity>
6.7469849586

> <CNN_VS>
2.8913242817

> <CNNaffinity_variance>
0.0691110939

$$$$
[H]c1c(-c2nc3c([H])c(OC([H])([H])C([H])([H])C([H])([H])N4C([H])([H])C([H])([H])C([H])([H])C4([H])[H])c(OC([H])([H])[H])c([H])c3c(N([H])C3([H])C([H])([H])C([H])([H])N(C4([H])C([H])([H])C4([H])[H])C([H])([H])C3([H])[H])c2[H])oc(C([H])([H])[H])c1[H]


 38 43  0  0  0  0  0  0  0  0999 V2000
   36.2994  -14.9369   36.4845 C   0  0  0  0  0  0  0  0  0  0  0  0
   36.8235  -16.2327   36.5534 C   0  0  0  0  0  0  0  0  0  0  0  0
   36.0664  -17.3637   36.3138 C   0  0  0  0  0  0  0  0  0  0  0  0
   36.5662  -18.6544   36.3792 C   0  0  0  0  0  0  0  0  0  0  0  0
   35.7111  -19.7366   36.1197 C   0  0  0  0  0  0  0  0  0  0  0  0
   34.3850  -19.5683   35.7995 C   0  0  0  0  0  0  0  0  0  0  0  0
   33.9313  -18.3076   35.7441 N   0  0  0  0  0  0  0  0  0  0  0  0
   34.7240  -17.2374   35.9881 C   0  0  0  0  0  0  0  0  0  0  0  0
   34.2144  -15.9572   35.9221 C   0  0  0  0  0  0  0  0  0  0  0  0
   34.9690  -14.8282   36.1613 C   0  0  0  0  0  0  0  0  0  0  0  0
   33.5081  -20.7141   35.5286 C   0  0  0  0  0  0  0  0  0  0  0  0
   32.6238  -20.8065   34.4783 C   0  0  0  0  0  0  0  0  0  0  0  0
   31.9913  -22.0257   34.5706 C   0  0  0  0  0  0  0  0  0  0  0  0
   32.5369  -22.6274   35.6996 C   0  0  0  0  0  0  0  0  0  0  0  0
   32.1781  -23.9667   36.2250 C   0  0  0  0  0  0  0  0  0  0  0  0
   33.4230  -21.8172   36.2269 O   0  0  0  0  0  0  0  0  0  0  0  0
   37.8479  -13.7785   37.9464 C   0  0  0  0  0  0  0  0  0  0  0  0
   37.1023  -13.8329   36.7338 O   0  0  0  0  0  0  0  0  0  0  0  0
   37.9149  -18.8603   36.7142 N   0  0  0  0  0  0  0  0  0  0  0  0
   38.3372  -18.3690   37.5235 H   0  0  0  0  0  0  0  0  0  0  0  0
   38.8087  -19.7494   35.9860 C   0  0  0  0  0  0  0  0  0  0  0  0
   39.4063  -19.1373   34.7559 C   0  0  0  0  0  0  0  0  0  0  0  0
   40.9415  -19.1879   34.8304 C   0  0  0  0  0  0  0  0  0  0  0  0
   41.3057  -18.4305   36.0090 N   0  0  0  0  0  0  0  0  0  0  0  0
   40.9268  -19.1521   37.1718 C   0  0  0  0  0  0  0  0  0  0  0  0
   39.9204  -20.2518   36.8833 C   0  0  0  0  0  0  0  0  0  0  0  0
   42.6507  -17.9666   35.9414 C   0  0  0  0  0  0  0  0  0  0  0  0
   43.7784  -18.8522   35.5901 C   0  0  0  0  0  0  0  0  0  0  0  0
   43.3641  -17.6498   34.7072 C   0  0  0  0  0  0  0  0  0  0  0  0
   34.3731  -13.5591   36.0741 O   0  0  0  0  0  0  0  0  0  0  0  0
   32.9630  -13.4165   36.1001 C   0  0  0  0  0  0  0  0  0  0  0  0
   32.5839  -12.5212   37.2874 C   0  0  0  0  0  0  0  0  0  0  0  0
   33.6999  -11.5514   37.5304 C   0  0  0  0  0  0  0  0  0  0  0  0
   33.2380  -10.2437   37.8697 N   0  0  0  0  0  0  0  0  0  0  0  0
   31.8461  -10.0315   37.6447 C   0  0  0  0  0  0  0  0  0  0  0  0
   31.7382   -8.5568   37.2820 C   0  0  0  0  0  0  0  0  0  0  0  0
   33.0073   -8.3491   36.4754 C   0  0  0  0  0  0  0  0  0  0  0  0
   33.9926   -9.2168   37.2304 C   0  0  0  0  0  0  0  0  0  0  0  0
 17 18  1  0  0  0
 18  1  1  0  0  0
  1  2  2  0  0  0
  2  3  1  0  0  0
  3  4  2  0  0  0
  4 19  1  0  0  0
 19 21  1  0  0  0
 21 22  1  0  0  0
 22 23  1  0  0  0
 23 24  1  0  0  0
 24 25  1  0  0  0
 25 26  1  0  0  0
 24 27  1  0  0  0
 27 28  1  0  0  0
 28 29  1  0  0  0
  4  5  1  0  0  0
  5  6  2  0  0  0
  6  7  1  0  0  0
  7  8  2  0  0  0
  8  9  1  0  0  0
  9 10  2  0  0  0
 10 30  1  0  0  0
 30 31  1  0  0  0
 31 32  1  0  0  0
 32 33  1  0  0  0
 33 34  1  0  0  0
 34 35  1  0  0  0
 35 36  1  0  0  0
 36 37  1  0  0  0
 37 38  1  0  0  0
  6 11  1  0  0  0
 11 12  2  0  0  0
 12 13  1  0  0  0
 13 14  2  0  0  0
 14 15  1  0  0  0
 14 16  1  0  0  0
 10  1  1  0  0  0
 38 34  1  0  0  0
 16 11  1  0  0  0
  8  3  1  0  0  0
 26 21  1  0  0  0
 29 27  1  0  0  0
 19 20  1  0  0  0
M  END
> <minimizedAffinity>
-7.75388

> <CNNscore>
0.3790776134

> <CNNaffinity>
6.6721863747

> <CNN_VS>
2.5292763710

> <CNNaffinity_variance>
0.0907744020

$$$$
[H]c1c(-c2nc3c([H])c(OC([H])([H])C([H])([H])C([H])([H])N4C([H])([H])C([H])([H])C([H])([H])C4([H])[H])c(OC([H])([H])[H])c([H])c3c(N([H])C3([H])C([H])([H])C([H])([H])N(C4([H])C([H])([H])C4([H])[H])C([H])([H])C3([H])[H])c2[H])oc(C([H])([H])[H])c1[H]


 38 43  0  0  0  0  0  0  0  0999 V2000
   37.7116  -21.8684   37.1240 C   0  0  0  0  0  0  0  0  0  0  0  0
   36.5097  -21.1694   36.9651 C   0  0  0  0  0  0  0  0  0  0  0  0
   36.4371  -19.7893   36.9636 C   0  0  0  0  0  0  0  0  0  0  0  0
   35.2571  -19.0793   36.8100 C   0  0  0  0  0  0  0  0  0  0  0  0
   35.2923  -17.6764   36.8251 C   0  0  0  0  0  0  0  0  0  0  0  0
   36.4600  -16.9696   36.9869 C   0  0  0  0  0  0  0  0  0  0  0  0
   37.5848  -17.6849   37.1331 N   0  0  0  0  0  0  0  0  0  0  0  0
   37.5926  -19.0388   37.1246 C   0  0  0  0  0  0  0  0  0  0  0  0
   38.7734  -19.7347   37.2805 C   0  0  0  0  0  0  0  0  0  0  0  0
   38.8467  -21.1117   37.2826 C   0  0  0  0  0  0  0  0  0  0  0  0
   36.4751  -15.5017   36.9967 C   0  0  0  0  0  0  0  0  0  0  0  0
   37.4683  -14.7214   37.5427 C   0  0  0  0  0  0  0  0  0  0  0  0
   37.1173  -13.4039   37.3517 C   0  0  0  0  0  0  0  0  0  0  0  0
   35.8990  -13.4516   36.6826 C   0  0  0  0  0  0  0  0  0  0  0  0
   35.1044  -12.2778   36.2477 C   0  0  0  0  0  0  0  0  0  0  0  0
   35.5644  -14.7059   36.4974 O   0  0  0  0  0  0  0  0  0  0  0  0
   37.4266  -23.9581   38.3195 C   0  0  0  0  0  0  0  0  0  0  0  0
   37.7312  -23.2559   37.1180 O   0  0  0  0  0  0  0  0  0  0  0  0
   34.0454  -19.7725   36.6529 N   0  0  0  0  0  0  0  0  0  0  0  0
   33.4461  -19.9775   37.4736 H   0  0  0  0  0  0  0  0  0  0  0  0
   33.5380  -20.2467   35.3734 C   0  0  0  0  0  0  0  0  0  0  0  0
   32.8476  -21.5745   35.4470 C   0  0  0  0  0  0  0  0  0  0  0  0
   31.4123  -21.4567   34.9074 C   0  0  0  0  0  0  0  0  0  0  0  0
   30.7499  -20.4866   35.7532 N   0  0  0  0  0  0  0  0  0  0  0  0
   31.2740  -19.1932   35.4912 C   0  0  0  0  0  0  0  0  0  0  0  0
   32.6007  -19.2313   34.7538 C   0  0  0  0  0  0  0  0  0  0  0  0
   29.3337  -20.6343   35.7139 C   0  0  0  0  0  0  0  0  0  0  0  0
   28.6751  -21.9547   35.6697 C   0  0  0  0  0  0  0  0  0  0  0  0
   28.4978  -20.9808   36.8600 C   0  0  0  0  0  0  0  0  0  0  0  0
   40.0901  -21.7441   37.4481 O   0  0  0  0  0  0  0  0  0  0  0  0
   41.2280  -21.3077   36.7240 C   0  0  0  0  0  0  0  0  0  0  0  0
   41.0008  -21.5984   35.2345 C   0  0  0  0  0  0  0  0  0  0  0  0
   41.5035  -20.4333   34.4378 C   0  0  0  0  0  0  0  0  0  0  0  0
   40.5307  -19.9184   33.5285 N   0  0  0  0  0  0  0  0  0  0  0  0
   40.2142  -18.5412   33.7189 C   0  0  0  0  0  0  0  0  0  0  0  0
   38.7528  -18.4247   33.3081 C   0  0  0  0  0  0  0  0  0  0  0  0
   38.1906  -19.7422   33.8105 C   0  0  0  0  0  0  0  0  0  0  0  0
   39.3331  -20.6920   33.5167 C   0  0  0  0  0  0  0  0  0  0  0  0
 17 18  1  0  0  0
 18  1  1  0  0  0
  1  2  2  0  0  0
  2  3  1  0  0  0
  3  4  2  0  0  0
  4 19  1  0  0  0
 19 21  1  0  0  0
 21 22  1  0  0  0
 22 23  1  0  0  0
 23 24  1  0  0  0
 24 25  1  0  0  0
 25 26  1  0  0  0
 24 27  1  0  0  0
 27 28  1  0  0  0
 28 29  1  0  0  0
  4  5  1  0  0  0
  5  6  2  0  0  0
  6  7  1  0  0  0
  7  8  2  0  0  0
  8  9  1  0  0  0
  9 10  2  0  0  0
 10 30  1  0  0  0
 30 31  1  0  0  0
 31 32  1  0  0  0
 32 33  1  0  0  0
 33 34  1  0  0  0
 34 35  1  0  0  0
 35 36  1  0  0  0
 36 37  1  0  0  0
 37 38  1  0  0  0
  6 11  1  0  0  0
 11 12  2  0  0  0
 12 13  1  0  0  0
 13 14  2  0  0  0
 14 15  1  0  0  0
 14 16  1  0  0  0
 10  1  1  0  0  0
 38 34  1  0  0  0
 16 11  1  0  0  0
  8  3  1  0  0  0
 26 21  1  0  0  0
 29 27  1  0  0  0
 19 20  1  0  0  0
M  END
> <minimizedAffinity>
-6.44135

> <CNNscore>
0.3720688224

> <CNNaffinity>
6.6568794250

> <CNN_VS>
2.4768173695

> <CNNaffinity_variance>
0.0543840006

$$$$
[H]c1c(-c2nc3c([H])c(OC([H])([H])C([H])([H])C([H])([H])N4C([H])([H])C([H])([H])C([H])([H])C4([H])[H])c(OC([H])([H])[H])c([H])c3c(N([H])C3([H])C([H])([H])C([H])([H])N(C4([H])C([H])([H])C4([H])[H])C([H])([H])C3([H])[H])c2[H])oc(C([H])([H])[H])c1[H]


 38 43  0  0  0  0  0  0  0  0999 V2000
   36.7418  -22.0663   37.7284 C   0  0  0  0  0  0  0  0  0  0  0  0
   37.5340  -21.0981   37.1012 C   0  0  0  0  0  0  0  0  0  0  0  0
   37.1933  -19.7594   37.0596 C   0  0  0  0  0  0  0  0  0  0  0  0
   37.9628  -18.7865   36.4419 C   0  0  0  0  0  0  0  0  0  0  0  0
   37.5251  -17.4532   36.4549 C   0  0  0  0  0  0  0  0  0  0  0  0
   36.3534  -17.0675   37.0613 C   0  0  0  0  0  0  0  0  0  0  0  0
   35.6311  -18.0317   37.6502 N   0  0  0  0  0  0  0  0  0  0  0  0
   36.0187  -19.3289   37.6591 C   0  0  0  0  0  0  0  0  0  0  0  0
   35.2432  -20.2889   38.2754 C   0  0  0  0  0  0  0  0  0  0  0  0
   35.5821  -21.6248   38.3170 C   0  0  0  0  0  0  0  0  0  0  0  0
   35.9151  -15.6664   37.0661 C   0  0  0  0  0  0  0  0  0  0  0  0
   36.7248  -14.5819   37.3146 C   0  0  0  0  0  0  0  0  0  0  0  0
   35.9457  -13.4502   37.2282 C   0  0  0  0  0  0  0  0  0  0  0  0
   34.6710  -13.9156   36.9236 C   0  0  0  0  0  0  0  0  0  0  0  0
   33.4668  -13.0734   36.7260 C   0  0  0  0  0  0  0  0  0  0  0  0
   34.7050  -15.2238   36.8390 O   0  0  0  0  0  0  0  0  0  0  0  0
   37.4544  -24.0386   36.5122 C   0  0  0  0  0  0  0  0  0  0  0  0
   37.1289  -23.3988   37.7426 O   0  0  0  0  0  0  0  0  0  0  0  0
   39.1606  -19.1502   35.8043 N   0  0  0  0  0  0  0  0  0  0  0  0
   39.9894  -19.4296   36.3608 H   0  0  0  0  0  0  0  0  0  0  0  0
   39.3411  -19.1697   34.3597 C   0  0  0  0  0  0  0  0  0  0  0  0
   40.7526  -18.9265   33.9197 C   0  0  0  0  0  0  0  0  0  0  0  0
   41.2475  -20.0971   33.0539 C   0  0  0  0  0  0  0  0  0  0  0  0
   41.1677  -21.2726   33.8948 N   0  0  0  0  0  0  0  0  0  0  0  0
   39.8054  -21.6129   34.1056 C   0  0  0  0  0  0  0  0  0  0  0  0
   38.8541  -20.4776   33.7718 C   0  0  0  0  0  0  0  0  0  0  0  0
   42.0326  -22.3073   33.4361 C   0  0  0  0  0  0  0  0  0  0  0  0
   42.1725  -23.5957   34.1429 C   0  0  0  0  0  0  0  0  0  0  0  0
   41.5996  -23.4967   32.7081 C   0  0  0  0  0  0  0  0  0  0  0  0
   34.7360  -22.5397   38.9652 O   0  0  0  0  0  0  0  0  0  0  0  0
   34.9989  -22.9544   40.2950 C   0  0  0  0  0  0  0  0  0  0  0  0
   33.6817  -22.9370   41.0821 C   0  0  0  0  0  0  0  0  0  0  0  0
   33.4083  -21.5321   41.5256 C   0  0  0  0  0  0  0  0  0  0  0  0
   34.5584  -20.8862   42.0720 N   0  0  0  0  0  0  0  0  0  0  0  0
   34.7457  -21.0956   43.4699 C   0  0  0  0  0  0  0  0  0  0  0  0
   35.4053  -19.8151   43.9630 C   0  0  0  0  0  0  0  0  0  0  0  0
   34.7110  -18.7684   43.1105 C   0  0  0  0  0  0  0  0  0  0  0  0
   34.5867  -19.4900   41.7848 C   0  0  0  0  0  0  0  0  0  0  0  0
 17 18  1  0  0  0
 18  1  1  0  0  0
  1  2  2  0  0  0
  2  3  1  0  0  0
  3  4  2  0  0  0
  4 19  1  0  0  0
 19 21  1  0  0  0
 21 22  1  0  0  0
 22 23  1  0  0  0
 23 24  1  0  0  0
 24 25  1  0  0  0
 25 26  1  0  0  0
 24 27  1  0  0  0
 27 28  1  0  0  0
 28 29  1  0  0  0
  4  5  1  0  0  0
  5  6  2  0  0  0
  6  7  1  0  0  0
  7  8  2  0  0  0
  8  9  1  0  0  0
  9 10  2  0  0  0
 10 30  1  0  0  0
 30 31  1  0  0  0
 31 32  1  0  0  0
 32 33  1  0  0  0
 33 34  1  0  0  0
 34 35  1  0  0  0
 35 36  1  0  0  0
 36 37  1  0  0  0
 37 38  1  0  0  0
  6 11  1  0  0  0
 11 12  2  0  0  0
 12 13  1  0  0  0
 13 14  2  0  0  0
 14 15  1  0  0  0
 14 16  1  0  0  0
 10  1  1  0  0  0
 38 34  1  0  0  0
 16 11  1  0  0  0
  8  3  1  0  0  0
 26 21  1  0  0  0
 29 27  1  0  0  0
 19 20  1  0  0  0
M  END
> <minimizedAffinity>
-5.76201

> <CNNscore>
0.3266893327

> <CNNaffinity>
5.9997663498

> <CNN_VS>
1.9600596428

> <CNNaffinity_variance>
0.1313934773

$$$$
[H]c1c(-c2nc3c([H])c(OC([H])([H])C([H])([H])C([H])([H])N4C([H])([H])C([H])([H])C([H])([H])C4([H])[H])c(OC([H])([H])[H])c([H])c3c(N([H])C3([H])C([H])([H])C([H])([H])N([H])C([H])([H])C3([H])[H])c2[H])oc(C([H])([H])[H])c1[H]


 36 40  0  0  0  0  0  0  0  0999 V2000
   36.1667  -13.8032   36.7355 C   0  0  0  0  0  0  0  0  0  0  0  0
   36.5176  -15.1084   36.3869 C   0  0  0  0  0  0  0  0  0  0  0  0
   35.6142  -16.0839   36.0509 C   0  0  0  0  0  0  0  0  0  0  0  0
   36.0236  -17.3836   35.7078 C   0  0  0  0  0  0  0  0  0  0  0  0
   35.0289  -18.2827   35.3879 C   0  0  0  0  0  0  0  0  0  0  0  0
   33.6950  -17.9087   35.4079 C   0  0  0  0  0  0  0  0  0  0  0  0
   33.3625  -16.6544   35.7430 N   0  0  0  0  0  0  0  0  0  0  0  0
   34.2805  -15.7319   36.0647 C   0  0  0  0  0  0  0  0  0  0  0  0
   33.8994  -14.4370   36.4084 C   0  0  0  0  0  0  0  0  0  0  0  0
   34.8292  -13.4811   36.7406 C   0  0  0  0  0  0  0  0  0  0  0  0
   32.6903  -18.9080   35.0586 C   0  0  0  0  0  0  0  0  0  0  0  0
   32.7604  -19.8622   34.0794 C   0  0  0  0  0  0  0  0  0  0  0  0
   31.5689  -20.5607   34.1421 C   0  0  0  0  0  0  0  0  0  0  0  0
   30.8341  -19.9999   35.1525 C   0  0  0  0  0  0  0  0  0  0  0  0
   29.4769  -20.4506   35.5620 C   0  0  0  0  0  0  0  0  0  0  0  0
   31.5421  -19.0347   35.6545 O   0  0  0  0  0  0  0  0  0  0  0  0
   38.3864  -13.3268   37.5473 C   0  0  0  0  0  0  0  0  0  0  0  0
   37.1376  -12.8627   37.0659 O   0  0  0  0  0  0  0  0  0  0  0  0
   37.3829  -17.7486   35.6879 N   0  0  0  0  0  0  0  0  0  0  0  0
   38.0462  -17.0714   36.1551 H   0  0  0  0  0  0  0  0  0  0  0  0
   38.0037  -18.8988   35.1273 C   0  0  0  0  0  0  0  0  0  0  0  0
   39.0910  -18.6619   34.1345 C   0  0  0  0  0  0  0  0  0  0  0  0
   39.0486  -19.8366   33.1370 C   0  0  0  0  0  0  0  0  0  0  0  0
   38.8189  -21.0280   33.9322 N   0  0  0  0  0  0  0  0  0  0  0  0
   39.2977  -20.9385   35.2795 C   0  0  0  0  0  0  0  0  0  0  0  0
   38.4722  -19.9433   36.1141 C   0  0  0  0  0  0  0  0  0  0  0  0
   37.8626  -21.3868   33.8826 H   0  0  0  0  0  0  0  0  0  0  0  0
   34.3890  -12.2150   37.0724 O   0  0  0  0  0  0  0  0  0  0  0  0
   33.4106  -12.0426   38.0738 C   0  0  0  0  0  0  0  0  0  0  0  0
   32.3187  -11.1061   37.5887 C   0  0  0  0  0  0  0  0  0  0  0  0
   31.0515  -11.8579   37.3092 C   0  0  0  0  0  0  0  0  0  0  0  0
   29.9235  -10.9607   37.3702 N   0  0  0  0  0  0  0  0  0  0  0  0
   28.7661  -11.5455   37.9709 C   0  0  0  0  0  0  0  0  0  0  0  0
   28.4477  -10.7448   39.2069 C   0  0  0  0  0  0  0  0  0  0  0  0
   28.9960   -9.3832   38.8718 C   0  0  0  0  0  0  0  0  0  0  0  0
   30.2211   -9.7424   38.0534 C   0  0  0  0  0  0  0  0  0  0  0  0
 17 18  1  0  0  0
 18  1  1  0  0  0
  1  2  2  0  0  0
  2  3  1  0  0  0
  3  4  2  0  0  0
  4 19  1  0  0  0
 19 21  1  0  0  0
 21 22  1  0  0  0
 22 23  1  0  0  0
 23 24  1  0  0  0
 24 25  1  0  0  0
 25 26  1  0  0  0
  4  5  1  0  0  0
  5  6  2  0  0  0
  6  7  1  0  0  0
  7  8  2  0  0  0
  8  9  1  0  0  0
  9 10  2  0  0  0
 10 28  1  0  0  0
 28 29  1  0  0  0
 29 30  1  0  0  0
 30 31  1  0  0  0
 31 32  1  0  0  0
 32 33  1  0  0  0
 33 34  1  0  0  0
 34 35  1  0  0  0
 35 36  1  0  0  0
  6 11  1  0  0  0
 11 12  2  0  0  0
 12 13  1  0  0  0
 13 14  2  0  0  0
 14 15  1  0  0  0
 14 16  1  0  0  0
 10  1  1  0  0  0
 36 32  1  0  0  0
 16 11  1  0  0  0
  8  3  1  0  0  0
 26 21  1  0  0  0
 19 20  1  0  0  0
 24 27  1  0  0  0
M  END
> <minimizedAffinity>
-8.71390

> <CNNscore>
0.8253545761

> <CNNaffinity>
7.1939368248

> <CNN_VS>
5.9375486374

> <CNNaffinity_variance>
0.0693150833

$$$$
[H]c1c(-c2nc3c([H])c(OC([H])([H])C([H])([H])C([H])([H])N4C([H])([H])C([H])([H])C([H])([H])C4([H])[H])c(OC([H])([H])[H])c([H])c3c(N([H])C3([H])C([H])([H])C([H])([H])N([H])C([H])([H])C3([H])[H])c2[H])oc(C([H])([H])[H])c1[H]


 36 40  0  0  0  0  0  0  0  0999 V2000
   32.6145  -20.4255   34.2070 C   0  0  0  0  0  0  0  0  0  0  0  0
   33.9705  -20.1036   34.2855 C   0  0  0  0  0  0  0  0  0  0  0  0
   34.4510  -18.9065   34.7507 C   0  0  0  0  0  0  0  0  0  0  0  0
   35.8285  -18.6352   34.8078 C   0  0  0  0  0  0  0  0  0  0  0  0
   36.1973  -17.3987   35.2929 C   0  0  0  0  0  0  0  0  0  0  0  0
   35.2449  -16.4786   35.7004 C   0  0  0  0  0  0  0  0  0  0  0  0
   33.9442  -16.7918   35.6235 N   0  0  0  0  0  0  0  0  0  0  0  0
   33.5189  -17.9763   35.1616 C   0  0  0  0  0  0  0  0  0  0  0  0
   32.1586  -18.2684   35.0952 C   0  0  0  0  0  0  0  0  0  0  0  0
   31.7081  -19.4782   34.6237 C   0  0  0  0  0  0  0  0  0  0  0  0
   35.7009  -15.1872   36.2045 C   0  0  0  0  0  0  0  0  0  0  0  0
   34.9926  -14.0180   36.2803 C   0  0  0  0  0  0  0  0  0  0  0  0
   35.8548  -13.0848   36.8253 C   0  0  0  0  0  0  0  0  0  0  0  0
   37.0417  -13.7286   37.0539 C   0  0  0  0  0  0  0  0  0  0  0  0
   38.2518  -13.0897   37.6373 C   0  0  0  0  0  0  0  0  0  0  0  0
   36.8929  -14.9597   36.6704 O   0  0  0  0  0  0  0  0  0  0  0  0
   31.9519  -22.6997   34.6560 C   0  0  0  0  0  0  0  0  0  0  0  0
   32.1969  -21.6617   33.7237 O   0  0  0  0  0  0  0  0  0  0  0  0
   36.7853  -19.5811   34.3939 N   0  0  0  0  0  0  0  0  0  0  0  0
   36.4467  -20.3013   33.6985 H   0  0  0  0  0  0  0  0  0  0  0  0
   38.1486  -19.7168   34.7752 C   0  0  0  0  0  0  0  0  0  0  0  0
   38.4167  -20.2165   36.1544 C   0  0  0  0  0  0  0  0  0  0  0  0
   39.7340  -19.5633   36.6180 C   0  0  0  0  0  0  0  0  0  0  0  0
   40.6238  -19.6020   35.4728 N   0  0  0  0  0  0  0  0  0  0  0  0
   40.3613  -20.6734   34.5587 C   0  0  0  0  0  0  0  0  0  0  0  0
   39.0322  -20.4721   33.8094 C   0  0  0  0  0  0  0  0  0  0  0  0
   40.7338  -18.7034   34.9973 H   0  0  0  0  0  0  0  0  0  0  0  0
   30.3472  -19.7084   34.5822 O   0  0  0  0  0  0  0  0  0  0  0  0
   29.6124  -19.8432   35.7788 C   0  0  0  0  0  0  0  0  0  0  0  0
   28.8563  -21.1596   35.7880 C   0  0  0  0  0  0  0  0  0  0  0  0
   28.1678  -21.3742   37.1028 C   0  0  0  0  0  0  0  0  0  0  0  0
   28.1376  -22.7815   37.4186 N   0  0  0  0  0  0  0  0  0  0  0  0
   27.1566  -23.5081   36.6756 C   0  0  0  0  0  0  0  0  0  0  0  0
   27.8880  -24.5296   35.8439 C   0  0  0  0  0  0  0  0  0  0  0  0
   29.1312  -24.7888   36.6526 C   0  0  0  0  0  0  0  0  0  0  0  0
   29.4039  -23.4168   37.2382 C   0  0  0  0  0  0  0  0  0  0  0  0
 17 18  1  0  0  0
 18  1  1  0  0  0
  1  2  2  0  0  0
  2  3  1  0  0  0
  3  4  2  0  0  0
  4 19  1  0  0  0
 19 21  1  0  0  0
 21 22  1  0  0  0
 22 23  1  0  0  0
 23 24  1  0  0  0
 24 25  1  0  0  0
 25 26  1  0  0  0
  4  5  1  0  0  0
  5  6  2  0  0  0
  6  7  1  0  0  0
  7  8  2  0  0  0
  8  9  1  0  0  0
  9 10  2  0  0  0
 10 28  1  0  0  0
 28 29  1  0  0  0
 29 30  1  0  0  0
 30 31  1  0  0  0
 31 32  1  0  0  0
 32 33  1  0  0  0
 33 34  1  0  0  0
 34 35  1  0  0  0
 35 36  1  0  0  0
  6 11  1  0  0  0
 11 12  2  0  0  0
 12 13  1  0  0  0
 13 14  2  0  0  0
 14 15  1  0  0  0
 14 16  1  0  0  0
 10  1  1  0  0  0
 36 32  1  0  0  0
 16 11  1  0  0  0
  8  3  1  0  0  0
 26 21  1  0  0  0
 19 20  1  0  0  0
 24 27  1  0  0  0
M  END
> <minimizedAffinity>
-6.95464

> <CNNscore>
0.5566508770

> <CNNaffinity>
6.1569852829

> <CNN_VS>
3.4272911549

> <CNNaffinity_variance>
0.2515349984

$$$$
[H]c1c(-c2nc3c([H])c(OC([H])([H])C([H])([H])C([H])([H])N4C([H])([H])C([H])([H])C([H])([H])C4([H])[H])c(OC([H])([H])[H])c([H])c3c(N([H])C3([H])C([H])([H])C([H])([H])N([H])C([H])([H])C3([H])[H])c2[H])oc(C([H])([H])[H])c1[H]


 36 40  0  0  0  0  0  0  0  0999 V2000
   35.9590  -22.0276   37.3876 C   0  0  0  0  0  0  0  0  0  0  0  0
   36.8226  -21.1639   36.7118 C   0  0  0  0  0  0  0  0  0  0  0  0
   36.7670  -19.7966   36.8001 C   0  0  0  0  0  0  0  0  0  0  0  0
   37.6629  -18.9738   36.0965 C   0  0  0  0  0  0  0  0  0  0  0  0
   37.5141  -17.6131   36.2601 C   0  0  0  0  0  0  0  0  0  0  0  0
   36.5249  -17.0967   37.0814 C   0  0  0  0  0  0  0  0  0  0  0  0
   35.6981  -17.9295   37.7286 N   0  0  0  0  0  0  0  0  0  0  0  0
   35.7890  -19.2621   37.6129 C   0  0  0  0  0  0  0  0  0  0  0  0
   34.9125  -20.0984   38.3001 C   0  0  0  0  0  0  0  0  0  0  0  0
   34.9936  -21.4660   38.1909 C   0  0  0  0  0  0  0  0  0  0  0  0
   36.4203  -15.6470   37.2121 C   0  0  0  0  0  0  0  0  0  0  0  0
   37.4256  -14.7519   37.4623 C   0  0  0  0  0  0  0  0  0  0  0  0
   36.8273  -13.5059   37.4940 C   0  0  0  0  0  0  0  0  0  0  0  0
   35.4918  -13.7022   37.2625 C   0  0  0  0  0  0  0  0  0  0  0  0
   34.4741  -12.6185   37.2113 C   0  0  0  0  0  0  0  0  0  0  0  0
   35.3112  -14.9778   37.1043 O   0  0  0  0  0  0  0  0  0  0  0  0
   37.0430  -24.0822   38.0330 C   0  0  0  0  0  0  0  0  0  0  0  0
   36.0727  -23.4078   37.2518 O   0  0  0  0  0  0  0  0  0  0  0  0
   38.6656  -19.5123   35.2684 N   0  0  0  0  0  0  0  0  0  0  0  0
   38.4485  -20.4529   34.8381 H   0  0  0  0  0  0  0  0  0  0  0  0
   39.9380  -18.9792   34.9229 C   0  0  0  0  0  0  0  0  0  0  0  0
   41.0670  -19.2722   35.8521 C   0  0  0  0  0  0  0  0  0  0  0  0
   42.0242  -18.0655   35.7863 C   0  0  0  0  0  0  0  0  0  0  0  0
   42.1025  -17.6934   34.3862 N   0  0  0  0  0  0  0  0  0  0  0  0
   41.8669  -18.7738   33.4754 C   0  0  0  0  0  0  0  0  0  0  0  0
   40.4000  -19.2382   33.5074 C   0  0  0  0  0  0  0  0  0  0  0  0
   41.5660  -16.8571   34.1444 H   0  0  0  0  0  0  0  0  0  0  0  0
   34.0959  -22.2419   38.8971 O   0  0  0  0  0  0  0  0  0  0  0  0
   32.7678  -22.3831   38.4432 C   0  0  0  0  0  0  0  0  0  0  0  0
   32.6950  -22.1511   36.9448 C   0  0  0  0  0  0  0  0  0  0  0  0
   31.6024  -21.1821   36.6039 C   0  0  0  0  0  0  0  0  0  0  0  0
   31.9331  -20.4744   35.3910 N   0  0  0  0  0  0  0  0  0  0  0  0
   31.6929  -19.0679   35.4721 C   0  0  0  0  0  0  0  0  0  0  0  0
   33.0176  -18.3742   35.2875 C   0  0  0  0  0  0  0  0  0  0  0  0
   33.7920  -19.3539   34.4466 C   0  0  0  0  0  0  0  0  0  0  0  0
   33.2858  -20.6795   34.9814 C   0  0  0  0  0  0  0  0  0  0  0  0
 17 18  1  0  0  0
 18  1  1  0  0  0
  1  2  2  0  0  0
  2  3  1  0  0  0
  3  4  2  0  0  0
  4 19  1  0  0  0
 19 21  1  0  0  0
 21 22  1  0  0  0
 22 23  1  0  0  0
 23 24  1  0  0  0
 24 25  1  0  0  0
 25 26  1  0  0  0
  4  5  1  0  0  0
  5  6  2  0  0  0
  6  7  1  0  0  0
  7  8  2  0  0  0
  8  9  1  0  0  0
  9 10  2  0  0  0
 10 28  1  0  0  0
 28 29  1  0  0  0
 29 30  1  0  0  0
 30 31  1  0  0  0
 31 32  1  0  0  0
 32 33  1  0  0  0
 33 34  1  0  0  0
 34 35  1  0  0  0
 35 36  1  0  0  0
  6 11  1  0  0  0
 11 12  2  0  0  0
 12 13  1  0  0  0
 13 14  2  0  0  0
 14 15  1  0  0  0
 14 16  1  0  0  0
 10  1  1  0  0  0
 36 32  1  0  0  0
 16 11  1  0  0  0
  8  3  1  0  0  0
 26 21  1  0  0  0
 19 20  1  0  0  0
 24 27  1  0  0  0
M  END
> <minimizedAffinity>
-6.32315

> <CNNscore>
0.5349171758

> <CNNaffinity>
6.3353910446

> <CNN_VS>
3.3889095783

> <CNNaffinity_variance>
0.0829373077

$$$$
[H]c1c(-c2nc3c([H])c(OC([H])([H])C([H])([H])C([H])([H])N4C([H])([H])C([H])([H])C([H])([H])C4([H])[H])c(OC([H])([H])[H])c([H])c3c(N([H])C3([H])C([H])([H])C([H])([H])N([H])C([H])([H])C3([H])[H])c2[H])oc(C([H])([H])[H])c1[H]


 36 40  0  0  0  0  0  0  0  0999 V2000
   34.8664  -22.7705   37.1557 C   0  0  0  0  0  0  0  0  0  0  0  0
   36.0750  -22.0729   37.1851 C   0  0  0  0  0  0  0  0  0  0  0  0
   36.1777  -20.7083   37.0961 C   0  0  0  0  0  0  0  0  0  0  0  0
   37.4224  -20.0572   37.1309 C   0  0  0  0  0  0  0  0  0  0  0  0
   37.4057  -18.6823   37.0332 C   0  0  0  0  0  0  0  0  0  0  0  0
   36.2122  -17.9899   36.9072 C   0  0  0  0  0  0  0  0  0  0  0  0
   35.0540  -18.6636   36.8796 N   0  0  0  0  0  0  0  0  0  0  0  0
   35.0006  -20.0001   36.9700 C   0  0  0  0  0  0  0  0  0  0  0  0
   33.7789  -20.6683   36.9377 C   0  0  0  0  0  0  0  0  0  0  0  0
   33.7089  -22.0378   37.0292 C   0  0  0  0  0  0  0  0  0  0  0  0
   36.2629  -16.5347   36.8083 C   0  0  0  0  0  0  0  0  0  0  0  0
   35.3879  -15.7065   36.1580 C   0  0  0  0  0  0  0  0  0  0  0  0
   35.8621  -14.4226   36.3530 C   0  0  0  0  0  0  0  0  0  0  0  0
   36.9985  -14.5311   37.1096 C   0  0  0  0  0  0  0  0  0  0  0  0
   37.8322  -13.3817   37.5532 C   0  0  0  0  0  0  0  0  0  0  0  0
   37.1849  -15.7935   37.3468 O   0  0  0  0  0  0  0  0  0  0  0  0
   35.8050  -24.9026   36.5342 C   0  0  0  0  0  0  0  0  0  0  0  0
   34.8360  -24.1584   37.2511 O   0  0  0  0  0  0  0  0  0  0  0  0
   38.6270  -20.7732   37.2632 N   0  0  0  0  0  0  0  0  0  0  0  0
   38.8082  -21.1933   38.2159 H   0  0  0  0  0  0  0  0  0  0  0  0
   39.6465  -21.0162   36.3019 C   0  0  0  0  0  0  0  0  0  0  0  0
   39.2058  -21.2574   34.8978 C   0  0  0  0  0  0  0  0  0  0  0  0
   40.2297  -22.2225   34.2678 C   0  0  0  0  0  0  0  0  0  0  0  0
   41.5327  -21.7757   34.7234 N   0  0  0  0  0  0  0  0  0  0  0  0
   41.6028  -20.3776   35.0279 C   0  0  0  0  0  0  0  0  0  0  0  0
   40.7875  -20.0253   36.2847 C   0  0  0  0  0  0  0  0  0  0  0  0
   41.9398  -22.3552   35.4610 H   0  0  0  0  0  0  0  0  0  0  0  0
   32.4680  -22.6422   36.9910 O   0  0  0  0  0  0  0  0  0  0  0  0
   31.6380  -22.6338   38.1316 C   0  0  0  0  0  0  0  0  0  0  0  0
   31.6016  -24.0118   38.7675 C   0  0  0  0  0  0  0  0  0  0  0  0
   30.2713  -24.2721   39.4090 C   0  0  0  0  0  0  0  0  0  0  0  0
   29.8751  -23.1326   40.2002 N   0  0  0  0  0  0  0  0  0  0  0  0
   28.4684  -22.8824   40.1687 C   0  0  0  0  0  0  0  0  0  0  0  0
   27.9543  -23.0276   41.5775 C   0  0  0  0  0  0  0  0  0  0  0  0
   29.1586  -22.6750   42.4093 C   0  0  0  0  0  0  0  0  0  0  0  0
   30.2859  -23.2356   41.5641 C   0  0  0  0  0  0  0  0  0  0  0  0
 17 18  1  0  0  0
 18  1  1  0  0  0
  1  2  2  0  0  0
  2  3  1  0  0  0
  3  4  2  0  0  0
  4 19  1  0  0  0
 19 21  1  0  0  0
 21 22  1  0  0  0
 22 23  1  0  0  0
 23 24  1  0  0  0
 24 25  1  0  0  0
 25 26  1  0  0  0
  4  5  1  0  0  0
  5  6  2  0  0  0
  6  7  1  0  0  0
  7  8  2  0  0  0
  8  9  1  0  0  0
  9 10  2  0  0  0
 10 28  1  0  0  0
 28 29  1  0  0  0
 29 30  1  0  0  0
 30 31  1  0  0  0
 31 32  1  0  0  0
 32 33  1  0  0  0
 33 34  1  0  0  0
 34 35  1  0  0  0
 35 36  1  0  0  0
  6 11  1  0  0  0
 11 12  2  0  0  0
 12 13  1  0  0  0
 13 14  2  0  0  0
 14 15  1  0  0  0
 14 16  1  0  0  0
 10  1  1  0  0  0
 36 32  1  0  0  0
 16 11  1  0  0  0
  8  3  1  0  0  0
 26 21  1  0  0  0
 19 20  1  0  0  0
 24 27  1  0  0  0
M  END
> <minimizedAffinity>
-4.81755

> <CNNscore>
0.3796634376

> <CNNaffinity>
5.4495215416

> <CNN_VS>
2.0689840317

> <CNNaffinity_variance>
0.1050328165

$$$$
[H]c1c(-c2nc3c([H])c(OC([H])([H])C([H])([H])C([H])([H])N4C([H])([H])C([H])([H])C([H])([H])C4([H])[H])c(OC([H])([H])[H])c([H])c3c(N([H])C3([H])C([H])([H])C([H])([H])N([H])C([H])([H])C3([H])[H])c2[H])oc(C([H])([H])[H])c1[H]


 36 40  0  0  0  0  0  0  0  0999 V2000
   32.9897  -20.7015   35.3140 C   0  0  0  0  0  0  0  0  0  0  0  0
   34.2139  -20.1343   35.6718 C   0  0  0  0  0  0  0  0  0  0  0  0
   34.4138  -18.7904   35.8574 C   0  0  0  0  0  0  0  0  0  0  0  0
   35.6696  -18.2730   36.2177 C   0  0  0  0  0  0  0  0  0  0  0  0
   35.7545  -16.9064   36.3771 C   0  0  0  0  0  0  0  0  0  0  0  0
   34.6471  -16.0954   36.1880 C   0  0  0  0  0  0  0  0  0  0  0  0
   33.4736  -16.6441   35.8448 N   0  0  0  0  0  0  0  0  0  0  0  0
   33.3236  -17.9654   35.6739 C   0  0  0  0  0  0  0  0  0  0  0  0
   32.0889  -18.5020   35.3167 C   0  0  0  0  0  0  0  0  0  0  0  0
   31.9203  -19.8542   35.1379 C   0  0  0  0  0  0  0  0  0  0  0  0
   34.8033  -14.6562   36.3724 C   0  0  0  0  0  0  0  0  0  0  0  0
   35.8582  -13.8707   35.9921 C   0  0  0  0  0  0  0  0  0  0  0  0
   35.5370  -12.5848   36.3855 C   0  0  0  0  0  0  0  0  0  0  0  0
   34.3069  -12.6496   36.9840 C   0  0  0  0  0  0  0  0  0  0  0  0
   33.5821  -11.4833   37.5559 C   0  0  0  0  0  0  0  0  0  0  0  0
   33.9252  -13.8897   36.9477 O   0  0  0  0  0  0  0  0  0  0  0  0
   32.9007  -22.9040   36.2909 C   0  0  0  0  0  0  0  0  0  0  0  0
   32.8582  -22.0761   35.1422 O   0  0  0  0  0  0  0  0  0  0  0  0
   36.7853  -19.1093   36.4102 N   0  0  0  0  0  0  0  0  0  0  0  0
   37.0315  -19.3206   37.4161 H   0  0  0  0  0  0  0  0  0  0  0  0
   37.6396  -19.7155   35.4484 C   0  0  0  0  0  0  0  0  0  0  0  0
   38.8696  -18.9624   35.0691 C   0  0  0  0  0  0  0  0  0  0  0  0
   39.1710  -19.3113   33.5980 C   0  0  0  0  0  0  0  0  0  0  0  0
   38.9284  -20.7356   33.4672 N   0  0  0  0  0  0  0  0  0  0  0  0
   39.1095  -21.4778   34.6791 C   0  0  0  0  0  0  0  0  0  0  0  0
   38.0191  -21.1538   35.7158 C   0  0  0  0  0  0  0  0  0  0  0  0
   38.0518  -20.9696   32.9955 H   0  0  0  0  0  0  0  0  0  0  0  0
   30.6716  -20.3255   34.7838 O   0  0  0  0  0  0  0  0  0  0  0  0
   29.6785  -20.5155   35.7674 C   0  0  0  0  0  0  0  0  0  0  0  0
   29.2253  -21.9642   35.7863 C   0  0  0  0  0  0  0  0  0  0  0  0
   28.0652  -22.1517   36.7180 C   0  0  0  0  0  0  0  0  0  0  0  0
   28.4312  -21.7348   38.0497 N   0  0  0  0  0  0  0  0  0  0  0  0
   27.4090  -20.9856   38.7100 C   0  0  0  0  0  0  0  0  0  0  0  0
   26.9987  -21.7649   39.9324 C   0  0  0  0  0  0  0  0  0  0  0  0
   28.2464  -22.5374   40.2689 C   0  0  0  0  0  0  0  0  0  0  0  0
   28.8047  -22.8281   38.8893 C   0  0  0  0  0  0  0  0  0  0  0  0
 17 18  1  0  0  0
 18  1  1  0  0  0
  1  2  2  0  0  0
  2  3  1  0  0  0
  3  4  2  0  0  0
  4 19  1  0  0  0
 19 21  1  0  0  0
 21 22  1  0  0  0
 22 23  1  0  0  0
 23 24  1  0  0  0
 24 25  1  0  0  0
 25 26  1  0  0  0
  4  5  1  0  0  0
  5  6  2  0  0  0
  6  7  1  0  0  0
  7  8  2  0  0  0
  8  9  1  0  0  0
  9 10  2  0  0  0
 10 28  1  0  0  0
 28 29  1  0  0  0
 29 30  1  0  0  0
 30 31  1  0  0  0
 31 32  1  0  0  0
 32 33  1  0  0  0
 33 34  1  0  0  0
 34 35  1  0  0  0
 35 36  1  0  0  0
  6 11  1  0  0  0
 11 12  2  0  0  0
 12 13  1  0  0  0
 13 14  2  0  0  0
 14 15  1  0  0  0
 14 16  1  0  0  0
 10  1  1  0  0  0
 36 32  1  0  0  0
 16 11  1  0  0  0
  8  3  1  0  0  0
 26 21  1  0  0  0
 19 20  1  0  0  0
 24 27  1  0  0  0
M  END
> <minimizedAffinity>
-6.52760

> <CNNscore>
0.3573310077

> <CNNaffinity>
5.7594385147

> <CNN_VS>
2.0580260754

> <CNNaffinity_variance>
0.5007261634

$$$$
[H]c1c(-c2nc3c([H])c(OC([H])([H])C([H])([H])C([H])([H])N4C([H])([H])C([H])([H])C([H])([H])C4([H])[H])c(OC([H])([H])[H])c([H])c3c(N([H])C3([H])C([H])([H])C([H])([H])N([H])C([H])([H])C3([H])[H])c2[H])oc(C([H])([H])[H])c1[H]


 36 40  0  0  0  0  0  0  0  0999 V2000
   35.8958  -22.6685   37.8460 C   0  0  0  0  0  0  0  0  0  0  0  0
   36.9257  -21.9113   37.2853 C   0  0  0  0  0  0  0  0  0  0  0  0
   36.8980  -20.5456   37.1644 C   0  0  0  0  0  0  0  0  0  0  0  0
   37.9645  -19.8329   36.5906 C   0  0  0  0  0  0  0  0  0  0  0  0
   37.8280  -18.4630   36.5204 C   0  0  0  0  0  0  0  0  0  0  0  0
   36.6891  -17.8336   36.9964 C   0  0  0  0  0  0  0  0  0  0  0  0
   35.7028  -18.5644   37.5342 N   0  0  0  0  0  0  0  0  0  0  0  0
   35.7726  -19.8996   37.6324 C   0  0  0  0  0  0  0  0  0  0  0  0
   34.7284  -20.6281   38.1971 C   0  0  0  0  0  0  0  0  0  0  0  0
   34.7859  -21.9971   38.3042 C   0  0  0  0  0  0  0  0  0  0  0  0
   36.6065  -16.3803   36.8927 C   0  0  0  0  0  0  0  0  0  0  0  0
   35.6466  -15.6371   36.2598 C   0  0  0  0  0  0  0  0  0  0  0  0
   36.0074  -14.3148   36.4410 C   0  0  0  0  0  0  0  0  0  0  0  0
   37.1651  -14.3172   37.1725 C   0  0  0  0  0  0  0  0  0  0  0  0
   37.9015  -13.0955   37.5945 C   0  0  0  0  0  0  0  0  0  0  0  0
   37.4695  -15.5567   37.4088 O   0  0  0  0  0  0  0  0  0  0  0  0
   35.6382  -24.8274   36.8041 C   0  0  0  0  0  0  0  0  0  0  0  0
   35.9909  -24.0538   37.9371 O   0  0  0  0  0  0  0  0  0  0  0  0
   39.1173  -20.4852   36.1145 N   0  0  0  0  0  0  0  0  0  0  0  0
   39.5658  -21.1698   36.7833 H   0  0  0  0  0  0  0  0  0  0  0  0
   39.7767  -20.3592   34.8608 C   0  0  0  0  0  0  0  0  0  0  0  0
   40.8314  -19.3101   34.7559 C   0  0  0  0  0  0  0  0  0  0  0  0
   40.8204  -18.8099   33.2977 C   0  0  0  0  0  0  0  0  0  0  0  0
   40.6604  -19.9914   32.4712 N   0  0  0  0  0  0  0  0  0  0  0  0
   41.1628  -21.1961   33.0618 C   0  0  0  0  0  0  0  0  0  0  0  0
   40.3116  -21.6407   34.2643 C   0  0  0  0  0  0  0  0  0  0  0  0
   39.7201  -20.1096   32.0870 H   0  0  0  0  0  0  0  0  0  0  0  0
   33.7186  -22.6630   38.8735 O   0  0  0  0  0  0  0  0  0  0  0  0
   32.4144  -22.4775   38.3690 C   0  0  0  0  0  0  0  0  0  0  0  0
   32.4182  -22.5618   36.8533 C   0  0  0  0  0  0  0  0  0  0  0  0
   31.0644  -22.2399   36.2942 C   0  0  0  0  0  0  0  0  0  0  0  0
   30.8644  -20.8112   36.2812 N   0  0  0  0  0  0  0  0  0  0  0  0
   31.9885  -20.0862   35.7781 C   0  0  0  0  0  0  0  0  0  0  0  0
   31.5347  -19.3540   34.5419 C   0  0  0  0  0  0  0  0  0  0  0  0
   30.0650  -19.1497   34.7968 C   0  0  0  0  0  0  0  0  0  0  0  0
   29.7065  -20.4209   35.5418 C   0  0  0  0  0  0  0  0  0  0  0  0
 17 18  1  0  0  0
 18  1  1  0  0  0
  1  2  2  0  0  0
  2  3  1  0  0  0
  3  4  2  0  0  0
  4 19  1  0  0  0
 19 21  1  0  0  0
 21 22  1  0  0  0
 22 23  1  0  0  0
 23 24  1  0  0  0
 24 25  1  0  0  0
 25 26  1  0  0  0
  4  5  1  0  0  0
  5  6  2  0  0  0
  6  7  1  0  0  0
  7  8  2  0  0  0
  8  9  1  0  0  0
  9 10  2  0  0  0
 10 28  1  0  0  0
 28 29  1  0  0  0
 29 30  1  0  0  0
 30 31  1  0  0  0
 31 32  1  0  0  0
 32 33  1  0  0  0
 33 34  1  0  0  0
 34 35  1  0  0  0
 35 36  1  0  0  0
  6 11  1  0  0  0
 11 12  2  0  0  0
 12 13  1  0  0  0
 13 14  2  0  0  0
 14 15  1  0  0  0
 14 16  1  0  0  0
 10  1  1  0  0  0
 36 32  1  0  0  0
 16 11  1  0  0  0
  8  3  1  0  0  0
 26 21  1  0  0  0
 19 20  1  0  0  0
 24 27  1  0  0  0
M  END
> <minimizedAffinity>
-6.45521

> <CNNscore>
0.3547176421

> <CNNaffinity>
5.8122639656

> <CNN_VS>
2.0617125034

> <CNNaffinity_variance>
0.3089032769

$$$$
[H]c1c(-c2nc3c([H])c(OC([H])([H])C([H])([H])C([H])([H])N4C([H])([H])C([H])([H])C([H])([H])C4([H])[H])c(OC([H])([H])[H])c([H])c3c(N([H])C3([H])C([H])([H])C([H])([H])N([H])C([H])([H])C3([H])[H])c2[H])oc(C([H])([H])[H])c1[H]


 36 40  0  0  0  0  0  0  0  0999 V2000
   36.4038  -22.3882   37.1278 C   0  0  0  0  0  0  0  0  0  0  0  0
   37.3529  -21.3975   36.8704 C   0  0  0  0  0  0  0  0  0  0  0  0
   37.0898  -20.0522   36.9083 C   0  0  0  0  0  0  0  0  0  0  0  0
   38.0848  -19.0970   36.6401 C   0  0  0  0  0  0  0  0  0  0  0  0
   37.7071  -17.7729   36.7067 C   0  0  0  0  0  0  0  0  0  0  0  0
   36.4062  -17.4167   37.0239 C   0  0  0  0  0  0  0  0  0  0  0  0
   35.4983  -18.3710   37.2704 N   0  0  0  0  0  0  0  0  0  0  0  0
   35.8002  -19.6764   37.2223 C   0  0  0  0  0  0  0  0  0  0  0  0
   34.8312  -20.6420   37.4841 C   0  0  0  0  0  0  0  0  0  0  0  0
   35.1261  -21.9835   37.4381 C   0  0  0  0  0  0  0  0  0  0  0  0
   36.0706  -15.9974   37.0782 C   0  0  0  0  0  0  0  0  0  0  0  0
   36.8549  -14.9656   37.5192 C   0  0  0  0  0  0  0  0  0  0  0  0
   36.0953  -13.8198   37.3723 C   0  0  0  0  0  0  0  0  0  0  0  0
   34.8899  -14.2083   36.8510 C   0  0  0  0  0  0  0  0  0  0  0  0
   33.7683  -13.2840   36.5338 C   0  0  0  0  0  0  0  0  0  0  0  0
   34.9325  -15.4967   36.6994 O   0  0  0  0  0  0  0  0  0  0  0  0
   37.3885  -24.3150   38.1911 C   0  0  0  0  0  0  0  0  0  0  0  0
   36.7408  -23.7371   37.0716 O   0  0  0  0  0  0  0  0  0  0  0  0
   39.4035  -19.4732   36.3228 N   0  0  0  0  0  0  0  0  0  0  0  0
   39.9424  -19.9513   37.0962 H   0  0  0  0  0  0  0  0  0  0  0  0
   40.1270  -19.3035   35.1103 C   0  0  0  0  0  0  0  0  0  0  0  0
   41.6151  -19.3014   35.2075 C   0  0  0  0  0  0  0  0  0  0  0  0
   42.1341  -18.3703   34.0937 C   0  0  0  0  0  0  0  0  0  0  0  0
   41.3227  -18.6543   32.9250 N   0  0  0  0  0  0  0  0  0  0  0  0
   40.7925  -19.9846   32.8851 C   0  0  0  0  0  0  0  0  0  0  0  0
   39.7206  -20.2049   33.9673 C   0  0  0  0  0  0  0  0  0  0  0  0
   40.6120  -17.9464   32.7265 H   0  0  0  0  0  0  0  0  0  0  0  0
   34.1223  -22.8926   37.7073 O   0  0  0  0  0  0  0  0  0  0  0  0
   33.3946  -23.4810   36.6518 C   0  0  0  0  0  0  0  0  0  0  0  0
   31.9109  -23.4865   36.9729 C   0  0  0  0  0  0  0  0  0  0  0  0
   31.4861  -22.1788   37.5714 C   0  0  0  0  0  0  0  0  0  0  0  0
   30.0481  -22.0675   37.5406 N   0  0  0  0  0  0  0  0  0  0  0  0
   29.5694  -21.1898   36.5194 C   0  0  0  0  0  0  0  0  0  0  0  0
   28.7242  -22.0109   35.5805 C   0  0  0  0  0  0  0  0  0  0  0  0
   28.2146  -23.1138   36.4698 C   0  0  0  0  0  0  0  0  0  0  0  0
   29.3979  -23.3304   37.3931 C   0  0  0  0  0  0  0  0  0  0  0  0
 17 18  1  0  0  0
 18  1  1  0  0  0
  1  2  2  0  0  0
  2  3  1  0  0  0
  3  4  2  0  0  0
  4 19  1  0  0  0
 19 21  1  0  0  0
 21 22  1  0  0  0
 22 23  1  0  0  0
 23 24  1  0  0  0
 24 25  1  0  0  0
 25 26  1  0  0  0
  4  5  1  0  0  0
  5  6  2  0  0  0
  6  7  1  0  0  0
  7  8  2  0  0  0
  8  9  1  0  0  0
  9 10  2  0  0  0
 10 28  1  0  0  0
 28 29  1  0  0  0
 29 30  1  0  0  0
 30 31  1  0  0  0
 31 32  1  0  0  0
 32 33  1  0  0  0
 33 34  1  0  0  0
 34 35  1  0  0  0
 35 36  1  0  0  0
  6 11  1  0  0  0
 11 12  2  0  0  0
 12 13  1  0  0  0
 13 14  2  0  0  0
 14 15  1  0  0  0
 14 16  1  0  0  0
 10  1  1  0  0  0
 36 32  1  0  0  0
 16 11  1  0  0  0
  8  3  1  0  0  0
 26 21  1  0  0  0
 19 20  1  0  0  0
 24 27  1  0  0  0
M  END
> <minimizedAffinity>
-6.22871

> <CNNscore>
0.3517655134

> <CNNaffinity>
5.8142938614

> <CNN_VS>
2.0452680588

> <CNNaffinity_variance>
0.0940984562

$$$$
[H]c1c(-c2nc3c([H])c(OC([H])([H])C([H])([H])C([H])([H])N4C([H])([H])C([H])([H])C([H])([H])C4([H])[H])c(OC([H])([H])[H])c([H])c3c(N([H])C3([H])C([H])([H])C([H])([H])N([H])C([H])([H])C3([H])[H])c2[H])oc(C([H])([H])[H])c1[H]


 36 40  0  0  0  0  0  0  0  0999 V2000
   36.0490  -22.3544   37.4013 C   0  0  0  0  0  0  0  0  0  0  0  0
   37.0599  -21.4533   37.0628 C   0  0  0  0  0  0  0  0  0  0  0  0
   36.9066  -20.0906   37.0617 C   0  0  0  0  0  0  0  0  0  0  0  0
   37.9599  -19.2289   36.7115 C   0  0  0  0  0  0  0  0  0  0  0  0
   37.6922  -17.8771   36.7453 C   0  0  0  0  0  0  0  0  0  0  0  0
   36.4410  -17.4059   37.1088 C   0  0  0  0  0  0  0  0  0  0  0  0
   35.4734  -18.2745   37.4333 N   0  0  0  0  0  0  0  0  0  0  0  0
   35.6680  -19.6009   37.4208 C   0  0  0  0  0  0  0  0  0  0  0  0
   34.6395  -20.4752   37.7637 C   0  0  0  0  0  0  0  0  0  0  0  0
   34.8244  -21.8370   37.7551 C   0  0  0  0  0  0  0  0  0  0  0  0
   36.2222  -15.9630   37.1248 C   0  0  0  0  0  0  0  0  0  0  0  0
   37.0967  -14.9856   37.5175 C   0  0  0  0  0  0  0  0  0  0  0  0
   36.4289  -13.7868   37.3493 C   0  0  0  0  0  0  0  0  0  0  0  0
   35.1850  -14.0914   36.8642 C   0  0  0  0  0  0  0  0  0  0  0  0
   34.1348  -13.0890   36.5399 C   0  0  0  0  0  0  0  0  0  0  0  0
   35.1202  -15.3830   36.7526 O   0  0  0  0  0  0  0  0  0  0  0  0
   37.3683  -24.2396   38.1213 C   0  0  0  0  0  0  0  0  0  0  0  0
   36.2747  -23.7273   37.3808 O   0  0  0  0  0  0  0  0  0  0  0  0
   39.2273  -19.7215   36.3479 N   0  0  0  0  0  0  0  0  0  0  0  0
   39.7856  -20.1690   37.1257 H   0  0  0  0  0  0  0  0  0  0  0  0
   39.8764  -19.7054   35.0826 C   0  0  0  0  0  0  0  0  0  0  0  0
   41.1539  -18.9417   34.9896 C   0  0  0  0  0  0  0  0  0  0  0  0
   41.2413  -18.3907   33.5525 C   0  0  0  0  0  0  0  0  0  0  0  0
   40.7831  -19.4602   32.6859 N   0  0  0  0  0  0  0  0  0  0  0  0
   40.9852  -20.7756   33.2162 C   0  0  0  0  0  0  0  0  0  0  0  0
   40.0713  -21.0514   34.4234 C   0  0  0  0  0  0  0  0  0  0  0  0
   39.8362  -19.3287   32.3229 H   0  0  0  0  0  0  0  0  0  0  0  0
   33.7660  -22.6520   38.1050 O   0  0  0  0  0  0  0  0  0  0  0  0
   33.2334  -22.6041   39.4103 C   0  0  0  0  0  0  0  0  0  0  0  0
   34.2834  -23.0215   40.4241 C   0  0  0  0  0  0  0  0  0  0  0  0
   34.0032  -22.4167   41.7674 C   0  0  0  0  0  0  0  0  0  0  0  0
   33.7240  -21.0085   41.6246 N   0  0  0  0  0  0  0  0  0  0  0  0
   32.8576  -20.4968   42.6394 C   0  0  0  0  0  0  0  0  0  0  0  0
   33.6268  -19.4484   43.4005 C   0  0  0  0  0  0  0  0  0  0  0  0
   34.6068  -18.9443   42.3747 C   0  0  0  0  0  0  0  0  0  0  0  0
   34.9073  -20.2096   41.5948 C   0  0  0  0  0  0  0  0  0  0  0  0
 17 18  1  0  0  0
 18  1  1  0  0  0
  1  2  2  0  0  0
  2  3  1  0  0  0
  3  4  2  0  0  0
  4 19  1  0  0  0
 19 21  1  0  0  0
 21 22  1  0  0  0
 22 23  1  0  0  0
 23 24  1  0  0  0
 24 25  1  0  0  0
 25 26  1  0  0  0
  4  5  1  0  0  0
  5  6  2  0  0  0
  6  7  1  0  0  0
  7  8  2  0  0  0
  8  9  1  0  0  0
  9 10  2  0  0  0
 10 28  1  0  0  0
 28 29  1  0  0  0
 29 30  1  0  0  0
 30 31  1  0  0  0
 31 32  1  0  0  0
 32 33  1  0  0  0
 33 34  1  0  0  0
 34 35  1  0  0  0
 35 36  1  0  0  0
  6 11  1  0  0  0
 11 12  2  0  0  0
 12 13  1  0  0  0
 13 14  2  0  0  0
 14 15  1  0  0  0
 14 16  1  0  0  0
 10  1  1  0  0  0
 36 32  1  0  0  0
 16 11  1  0  0  0
  8  3  1  0  0  0
 26 21  1  0  0  0
 19 20  1  0  0  0
 24 27  1  0  0  0
M  END
> <minimizedAffinity>
-5.76843

> <CNNscore>
0.3289757669

> <CNNaffinity>
5.6878461838

> <CNN_VS>
1.8711636066

> <CNNaffinity_variance>
0.2216270268

$$$$
[H]c1c(-c2nc3c([H])c(OC([H])([H])C([H])([H])C([H])([H])N4C([H])([H])C([H])([H])C([H])([H])C4([H])[H])c(OC([H])([H])[H])c([H])c3c(N([H])C3([H])C([H])([H])C([H])([H])N([H])C([H])([H])C3([H])[H])c2[H])oc(C([H])([H])[H])c1[H]


 36 40  0  0  0  0  0  0  0  0999 V2000
   35.8553  -15.5855   36.0198 C   0  0  0  0  0  0  0  0  0  0  0  0
   35.9966  -16.9660   35.8695 C   0  0  0  0  0  0  0  0  0  0  0  0
   34.9454  -17.8373   35.7414 C   0  0  0  0  0  0  0  0  0  0  0  0
   35.1458  -19.2201   35.5927 C   0  0  0  0  0  0  0  0  0  0  0  0
   34.0161  -20.0008   35.4727 C   0  0  0  0  0  0  0  0  0  0  0  0
   32.7514  -19.4355   35.4990 C   0  0  0  0  0  0  0  0  0  0  0  0
   32.6202  -18.1096   35.6433 N   0  0  0  0  0  0  0  0  0  0  0  0
   33.6775  -17.2944   35.7652 C   0  0  0  0  0  0  0  0  0  0  0  0
   33.5045  -15.9203   35.9138 C   0  0  0  0  0  0  0  0  0  0  0  0
   34.5789  -15.0726   36.0400 C   0  0  0  0  0  0  0  0  0  0  0  0
   31.5959  -20.3170   35.3668 C   0  0  0  0  0  0  0  0  0  0  0  0
   30.2789  -19.9626   35.2477 C   0  0  0  0  0  0  0  0  0  0  0  0
   29.5726  -21.1473   35.1519 C   0  0  0  0  0  0  0  0  0  0  0  0
   30.4905  -22.1616   35.2172 C   0  0  0  0  0  0  0  0  0  0  0  0
   30.1568  -23.6097   35.1513 C   0  0  0  0  0  0  0  0  0  0  0  0
   31.6610  -21.6150   35.3431 O   0  0  0  0  0  0  0  0  0  0  0  0
   37.5018  -14.5421   37.4386 C   0  0  0  0  0  0  0  0  0  0  0  0
   36.9679  -14.7593   36.1446 O   0  0  0  0  0  0  0  0  0  0  0  0
   36.4367  -19.7804   35.5637 N   0  0  0  0  0  0  0  0  0  0  0  0
   36.8922  -19.8331   34.6115 H   0  0  0  0  0  0  0  0  0  0  0  0
   37.2257  -20.2930   36.6301 C   0  0  0  0  0  0  0  0  0  0  0  0
   38.4241  -19.4981   37.0250 C   0  0  0  0  0  0  0  0  0  0  0  0
   39.4805  -20.5023   37.5273 C   0  0  0  0  0  0  0  0  0  0  0  0
   38.7592  -21.4746   38.3268 N   0  0  0  0  0  0  0  0  0  0  0  0
   37.5617  -20.9696   38.9296 C   0  0  0  0  0  0  0  0  0  0  0  0
   36.4723  -20.6816   37.8813 C   0  0  0  0  0  0  0  0  0  0  0  0
   38.6111  -22.3728   37.8610 H   0  0  0  0  0  0  0  0  0  0  0  0
   34.3426  -13.7199   36.1846 O   0  0  0  0  0  0  0  0  0  0  0  0
   34.3743  -13.1256   37.4635 C   0  0  0  0  0  0  0  0  0  0  0  0
   32.9716  -13.0311   38.0362 C   0  0  0  0  0  0  0  0  0  0  0  0
   32.1317  -12.0738   37.2443 C   0  0  0  0  0  0  0  0  0  0  0  0
   32.1185  -10.7825   37.8874 N   0  0  0  0  0  0  0  0  0  0  0  0
   33.3599  -10.0828   37.7792 C   0  0  0  0  0  0  0  0  0  0  0  0
   33.0946   -8.8119   37.0147 C   0  0  0  0  0  0  0  0  0  0  0  0
   31.6489   -8.5311   37.3272 C   0  0  0  0  0  0  0  0  0  0  0  0
   31.0770   -9.9335   37.4037 C   0  0  0  0  0  0  0  0  0  0  0  0
 17 18  1  0  0  0
 18  1  1  0  0  0
  1  2  2  0  0  0
  2  3  1  0  0  0
  3  4  2  0  0  0
  4 19  1  0  0  0
 19 21  1  0  0  0
 21 22  1  0  0  0
 22 23  1  0  0  0
 23 24  1  0  0  0
 24 25  1  0  0  0
 25 26  1  0  0  0
  4  5  1  0  0  0
  5  6  2  0  0  0
  6  7  1  0  0  0
  7  8  2  0  0  0
  8  9  1  0  0  0
  9 10  2  0  0  0
 10 28  1  0  0  0
 28 29  1  0  0  0
 29 30  1  0  0  0
 30 31  1  0  0  0
 31 32  1  0  0  0
 32 33  1  0  0  0
 33 34  1  0  0  0
 34 35  1  0  0  0
 35 36  1  0  0  0
  6 11  1  0  0  0
 11 12  2  0  0  0
 12 13  1  0  0  0
 13 14  2  0  0  0
 14 15  1  0  0  0
 14 16  1  0  0  0
 10  1  1  0  0  0
 36 32  1  0  0  0
 16 11  1  0  0  0
  8  3  1  0  0  0
 26 21  1  0  0  0
 19 20  1  0  0  0
 24 27  1  0  0  0
M  END
> <minimizedAffinity>
-7.16221

> <CNNscore>
0.2848731577

> <CNNaffinity>
6.1883416176

> <CNN_VS>
1.7628923655

> <CNNaffinity_variance>
0.3631413877

$$$$
[H]c1c(-c2nc3c([H])c(OC([H])([H])C([H])([H])C([H])([H])N4C([H])([H])C([H])([H])C([H])([H])C4([H])[H])c(OC([H])([H])[H])c([H])c3c(N([H])C3([H])C([H])([H])C([H])([H])N(C([H])([H])[H])C([H])([H])C3([H])[H])c2[H])oc(C([H])([H])N([H])C([H])([H])C([H])([H])[H])c1[H]


 40 44  0  0  0  0  0  0  0  0999 V2000
   34.0687  -18.3074   35.2914 C   0  0  0  0  0  0  0  0  0  0  0  0
   35.4173  -18.5792   35.2334 C   0  0  0  0  0  0  0  0  0  0  0  0
   36.3705  -17.6242   35.5691 C   0  0  0  0  0  0  0  0  0  0  0  0
   35.8602  -16.3939   35.9608 C   0  0  0  0  0  0  0  0  0  0  0  0
   36.7032  -15.3762   36.3161 C   0  0  0  0  0  0  0  0  0  0  0  0
   36.1895  -14.1474   36.7088 C   0  0  0  0  0  0  0  0  0  0  0  0
   34.8373  -13.8852   36.7630 C   0  0  0  0  0  0  0  0  0  0  0  0
   33.9870  -14.9080   36.4061 C   0  0  0  0  0  0  0  0  0  0  0  0
   34.5079  -16.1329   36.0150 C   0  0  0  0  0  0  0  0  0  0  0  0
   33.6570  -17.1081   35.6754 N   0  0  0  0  0  0  0  0  0  0  0  0
   32.1702  -21.3099   34.7757 C   0  0  0  0  0  0  0  0  0  0  0  0
   31.3643  -20.4113   34.1012 C   0  0  0  0  0  0  0  0  0  0  0  0
   31.9404  -19.1764   34.1897 C   0  0  0  0  0  0  0  0  0  0  0  0
   33.0968  -19.3578   34.9253 C   0  0  0  0  0  0  0  0  0  0  0  0
   33.1779  -20.6252   35.2398 O   0  0  0  0  0  0  0  0  0  0  0  0
   31.9131  -22.7590   34.9245 C   0  0  0  0  0  0  0  0  0  0  0  0
   31.8673  -23.4254   33.6311 N   0  0  0  0  0  0  0  0  0  0  0  0
   31.3111  -22.8382   32.9881 H   0  0  0  0  0  0  0  0  0  0  0  0
   31.1555  -25.3338   32.3669 C   0  0  0  0  0  0  0  0  0  0  0  0
   31.2474  -24.7271   33.7486 C   0  0  0  0  0  0  0  0  0  0  0  0
   37.7610  -17.9035   35.4870 N   0  0  0  0  0  0  0  0  0  0  0  0
   38.3453  -17.3950   34.8091 H   0  0  0  0  0  0  0  0  0  0  0  0
   38.2954  -18.9145   36.3778 C   0  0  0  0  0  0  0  0  0  0  0  0
   37.9323  -20.3214   35.8760 C   0  0  0  0  0  0  0  0  0  0  0  0
   38.3101  -21.2503   36.9990 C   0  0  0  0  0  0  0  0  0  0  0  0
   39.6336  -21.1234   37.4867 N   0  0  0  0  0  0  0  0  0  0  0  0
   40.5341  -22.1735   37.1541 C   0  0  0  0  0  0  0  0  0  0  0  0
   40.1882  -19.8220   37.5680 C   0  0  0  0  0  0  0  0  0  0  0  0
   39.8152  -18.9334   36.3944 C   0  0  0  0  0  0  0  0  0  0  0  0
   37.0403  -13.1134   37.0694 O   0  0  0  0  0  0  0  0  0  0  0  0
   38.3090  -13.4241   37.6325 C   0  0  0  0  0  0  0  0  0  0  0  0
   34.3471  -12.6382   37.1623 O   0  0  0  0  0  0  0  0  0  0  0  0
   33.2248  -12.6066   38.0213 C   0  0  0  0  0  0  0  0  0  0  0  0
   31.9573  -12.4058   37.1873 C   0  0  0  0  0  0  0  0  0  0  0  0
   31.3574  -11.0878   37.5934 C   0  0  0  0  0  0  0  0  0  0  0  0
   29.9019  -11.1404   37.5944 N   0  0  0  0  0  0  0  0  0  0  0  0
   29.4642  -12.2667   38.4002 C   0  0  0  0  0  0  0  0  0  0  0  0
   28.0289  -11.9279   38.7619 C   0  0  0  0  0  0  0  0  0  0  0  0
   28.0667  -10.4263   38.9065 C   0  0  0  0  0  0  0  0  0  0  0  0
   29.3358   -9.9650   38.2203 C   0  0  0  0  0  0  0  0  0  0  0  0
 19 20  1  0  0  0
 20 17  1  0  0  0
 17 16  1  0  0  0
 16 11  1  0  0  0
 11 12  2  0  0  0
 12 13  1  0  0  0
 13 14  2  0  0  0
 14 15  1  0  0  0
 14  1  1  0  0  0
  1  2  2  0  0  0
  2  3  1  0  0  0
  3 21  1  0  0  0
 21 23  1  0  0  0
 23 24  1  0  0  0
 24 25  1  0  0  0
 25 26  1  0  0  0
 26 27  1  0  0  0
 26 28  1  0  0  0
 28 29  1  0  0  0
  3  4  2  0  0  0
  4  5  1  0  0  0
  5  6  2  0  0  0
  6 30  1  0  0  0
 30 31  1  0  0  0
  6  7  1  0  0  0
  7 32  1  0  0  0
 32 33  1  0  0  0
 33 34  1  0  0  0
 34 35  1  0  0  0
 35 36  1  0  0  0
 36 37  1  0  0  0
 37 38  1  0  0  0
 38 39  1  0  0  0
 39 40  1  0  0  0
  7  8  2  0  0  0
  8  9  1  0  0  0
  9 10  2  0  0  0
 15 11  1  0  0  0
 10  1  1  0  0  0
 29 23  1  0  0  0
  9  4  1  0  0  0
 40 36  1  0  0  0
 17 18  1  0  0  0
 21 22  1  0  0  0
M  END
> <minimizedAffinity>
-7.86343

> <CNNscore>
0.7990376353

> <CNNaffinity>
7.1489930153

> <CNN_VS>
5.7123146057

> <CNNaffinity_variance>
0.1063235775

$$$$
[H]c1c(-c2nc3c([H])c(OC([H])([H])C([H])([H])C([H])([H])N4C([H])([H])C([H])([H])C([H])([H])C4([H])[H])c(OC([H])([H])[H])c([H])c3c(N([H])C3([H])C([H])([H])C([H])([H])N(C([H])([H])[H])C([H])([H])C3([H])[H])c2[H])oc(C([H])([H])N([H])C([H])([H])C([H])([H])[H])c1[H]


 40 44  0  0  0  0  0  0  0  0999 V2000
   33.8189  -18.2869   35.7103 C   0  0  0  0  0  0  0  0  0  0  0  0
   35.0973  -18.6927   36.0216 C   0  0  0  0  0  0  0  0  0  0  0  0
   36.0916  -17.7814   36.3596 C   0  0  0  0  0  0  0  0  0  0  0  0
   35.6970  -16.4503   36.3573 C   0  0  0  0  0  0  0  0  0  0  0  0
   36.5897  -15.4632   36.6754 C   0  0  0  0  0  0  0  0  0  0  0  0
   36.1916  -14.1329   36.6735 C   0  0  0  0  0  0  0  0  0  0  0  0
   34.9090  -13.7370   36.3598 C   0  0  0  0  0  0  0  0  0  0  0  0
   34.0089  -14.7286   36.0395 C   0  0  0  0  0  0  0  0  0  0  0  0
   34.4143  -16.0554   36.0437 C   0  0  0  0  0  0  0  0  0  0  0  0
   33.5169  -16.9971   35.7297 N   0  0  0  0  0  0  0  0  0  0  0  0
   30.9109  -20.3573   35.3338 C   0  0  0  0  0  0  0  0  0  0  0  0
   31.7687  -21.0082   34.4664 C   0  0  0  0  0  0  0  0  0  0  0  0
   32.9628  -20.3461   34.4753 C   0  0  0  0  0  0  0  0  0  0  0  0
   32.7988  -19.2958   35.3591 C   0  0  0  0  0  0  0  0  0  0  0  0
   31.5793  -19.3538   35.8295 O   0  0  0  0  0  0  0  0  0  0  0  0
   29.5133  -20.7469   35.6221 C   0  0  0  0  0  0  0  0  0  0  0  0
   29.3256  -21.0429   37.0350 N   0  0  0  0  0  0  0  0  0  0  0  0
   30.1931  -21.4791   37.3885 H   0  0  0  0  0  0  0  0  0  0  0  0
   28.1980  -22.9199   36.0593 C   0  0  0  0  0  0  0  0  0  0  0  0
   28.2193  -21.9555   37.2234 C   0  0  0  0  0  0  0  0  0  0  0  0
   37.4144  -18.2042   36.6592 N   0  0  0  0  0  0  0  0  0  0  0  0
   37.8712  -17.8802   37.5228 H   0  0  0  0  0  0  0  0  0  0  0  0
   38.0676  -19.0850   35.7111 C   0  0  0  0  0  0  0  0  0  0  0  0
   38.0969  -18.4458   34.3134 C   0  0  0  0  0  0  0  0  0  0  0  0
   38.5544  -19.5418   33.3882 C   0  0  0  0  0  0  0  0  0  0  0  0
   39.7512  -20.2027   33.7577 N   0  0  0  0  0  0  0  0  0  0  0  0
   40.9010  -19.9173   32.9700 C   0  0  0  0  0  0  0  0  0  0  0  0
   39.9772  -20.4432   35.1358 C   0  0  0  0  0  0  0  0  0  0  0  0
   39.5393  -19.2950   36.0279 C   0  0  0  0  0  0  0  0  0  0  0  0
   37.0931  -13.1296   36.9952 O   0  0  0  0  0  0  0  0  0  0  0  0
   38.2561  -13.4571   37.7459 C   0  0  0  0  0  0  0  0  0  0  0  0
   34.5348  -12.3898   36.3658 O   0  0  0  0  0  0  0  0  0  0  0  0
   34.1044  -11.8225   37.5870 C   0  0  0  0  0  0  0  0  0  0  0  0
   32.7256  -11.1882   37.3897 C   0  0  0  0  0  0  0  0  0  0  0  0
   31.7158  -12.3027   37.3851 C   0  0  0  0  0  0  0  0  0  0  0  0
   30.3535  -11.7902   37.4389 N   0  0  0  0  0  0  0  0  0  0  0  0
   29.6939  -12.3079   38.6249 C   0  0  0  0  0  0  0  0  0  0  0  0
   28.5455  -11.3430   38.8610 C   0  0  0  0  0  0  0  0  0  0  0  0
   29.1233  -10.0214   38.4174 C   0  0  0  0  0  0  0  0  0  0  0  0
   30.3408  -10.3501   37.5784 C   0  0  0  0  0  0  0  0  0  0  0  0
 19 20  1  0  0  0
 20 17  1  0  0  0
 17 16  1  0  0  0
 16 11  1  0  0  0
 11 12  2  0  0  0
 12 13  1  0  0  0
 13 14  2  0  0  0
 14 15  1  0  0  0
 14  1  1  0  0  0
  1  2  2  0  0  0
  2  3  1  0  0  0
  3 21  1  0  0  0
 21 23  1  0  0  0
 23 24  1  0  0  0
 24 25  1  0  0  0
 25 26  1  0  0  0
 26 27  1  0  0  0
 26 28  1  0  0  0
 28 29  1  0  0  0
  3  4  2  0  0  0
  4  5  1  0  0  0
  5  6  2  0  0  0
  6 30  1  0  0  0
 30 31  1  0  0  0
  6  7  1  0  0  0
  7 32  1  0  0  0
 32 33  1  0  0  0
 33 34  1  0  0  0
 34 35  1  0  0  0
 35 36  1  0  0  0
 36 37  1  0  0  0
 37 38  1  0  0  0
 38 39  1  0  0  0
 39 40  1  0  0  0
  7  8  2  0  0  0
  8  9  1  0  0  0
  9 10  2  0  0  0
 15 11  1  0  0  0
 10  1  1  0  0  0
 29 23  1  0  0  0
  9  4  1  0  0  0
 40 36  1  0  0  0
 17 18  1  0  0  0
 21 22  1  0  0  0
M  END
> <minimizedAffinity>
-8.50733

> <CNNscore>
0.7457708120

> <CNNaffinity>
7.3179712296

> <CNN_VS>
5.4575295448

> <CNNaffinity_variance>
0.1418306381

$$$$
[H]c1c(-c2nc3c([H])c(OC([H])([H])C([H])([H])C([H])([H])N4C([H])([H])C([H])([H])C([H])([H])C4([H])[H])c(OC([H])([H])[H])c([H])c3c(N([H])C3([H])C([H])([H])C([H])([H])N(C([H])([H])[H])C([H])([H])C3([H])[H])c2[H])oc(C([H])([H])N([H])C([H])([H])C([H])([H])[H])c1[H]


 40 44  0  0  0  0  0  0  0  0999 V2000
   34.2402  -18.3044   35.4158 C   0  0  0  0  0  0  0  0  0  0  0  0
   35.5858  -18.5572   35.5623 C   0  0  0  0  0  0  0  0  0  0  0  0
   36.4808  -17.5597   35.9330 C   0  0  0  0  0  0  0  0  0  0  0  0
   35.9165  -16.3082   36.1398 C   0  0  0  0  0  0  0  0  0  0  0  0
   36.6993  -15.2484   36.5095 C   0  0  0  0  0  0  0  0  0  0  0  0
   36.1316  -13.9983   36.7169 C   0  0  0  0  0  0  0  0  0  0  0  0
   34.7830  -13.7556   36.5672 C   0  0  0  0  0  0  0  0  0  0  0  0
   33.9932  -14.8206   36.1954 C   0  0  0  0  0  0  0  0  0  0  0  0
   34.5678  -16.0665   35.9901 C   0  0  0  0  0  0  0  0  0  0  0  0
   33.7748  -17.0828   35.6309 N   0  0  0  0  0  0  0  0  0  0  0  0
   32.3963  -21.3533   34.9807 C   0  0  0  0  0  0  0  0  0  0  0  0
   31.7697  -20.5696   34.0294 C   0  0  0  0  0  0  0  0  0  0  0  0
   32.3525  -19.3349   34.0471 C   0  0  0  0  0  0  0  0  0  0  0  0
   33.3313  -19.3999   35.0213 C   0  0  0  0  0  0  0  0  0  0  0  0
   33.3097  -20.6042   35.5322 O   0  0  0  0  0  0  0  0  0  0  0  0
   32.0716  -22.7630   35.2897 C   0  0  0  0  0  0  0  0  0  0  0  0
   30.6992  -22.9017   35.7552 N   0  0  0  0  0  0  0  0  0  0  0  0
   30.0709  -22.7457   34.9499 H   0  0  0  0  0  0  0  0  0  0  0  0
   28.9887  -21.4461   36.5930 C   0  0  0  0  0  0  0  0  0  0  0  0
   30.4083  -21.9288   36.7854 C   0  0  0  0  0  0  0  0  0  0  0  0
   37.8712  -17.8214   36.0619 N   0  0  0  0  0  0  0  0  0  0  0  0
   38.4606  -17.1889   36.6204 H   0  0  0  0  0  0  0  0  0  0  0  0
   38.3997  -18.9876   35.3823 C   0  0  0  0  0  0  0  0  0  0  0  0
   38.9344  -18.6055   33.9927 C   0  0  0  0  0  0  0  0  0  0  0  0
   39.2088  -19.9149   33.3020 C   0  0  0  0  0  0  0  0  0  0  0  0
   40.0221  -20.8301   34.0138 N   0  0  0  0  0  0  0  0  0  0  0  0
   41.3452  -21.0142   33.5245 C   0  0  0  0  0  0  0  0  0  0  0  0
   39.8542  -20.9126   35.4184 C   0  0  0  0  0  0  0  0  0  0  0  0
   39.6217  -19.5647   36.0780 C   0  0  0  0  0  0  0  0  0  0  0  0
   36.9214  -12.9218   37.0915 O   0  0  0  0  0  0  0  0  0  0  0  0
   38.2575  -13.1577   37.5187 C   0  0  0  0  0  0  0  0  0  0  0  0
   34.2375  -12.4863   36.7826 O   0  0  0  0  0  0  0  0  0  0  0  0
   33.1535  -12.3702   37.6825 C   0  0  0  0  0  0  0  0  0  0  0  0
   32.5232  -10.9833   37.5358 C   0  0  0  0  0  0  0  0  0  0  0  0
   33.5066   -9.9838   38.0796 C   0  0  0  0  0  0  0  0  0  0  0  0
   33.5317   -8.7678   37.2784 N   0  0  0  0  0  0  0  0  0  0  0  0
   34.5030   -8.9192   36.2092 C   0  0  0  0  0  0  0  0  0  0  0  0
   34.0835   -7.8858   35.1787 C   0  0  0  0  0  0  0  0  0  0  0  0
   32.5794   -7.8845   35.3005 C   0  0  0  0  0  0  0  0  0  0  0  0
   32.2598   -8.5441   36.6259 C   0  0  0  0  0  0  0  0  0  0  0  0
 19 20  1  0  0  0
 20 17  1  0  0  0
 17 16  1  0  0  0
 16 11  1  0  0  0
 11 12  2  0  0  0
 12 13  1  0  0  0
 13 14  2  0  0  0
 14 15  1  0  0  0
 14  1  1  0  0  0
  1  2  2  0  0  0
  2  3  1  0  0  0
  3 21  1  0  0  0
 21 23  1  0  0  0
 23 24  1  0  0  0
 24 25  1  0  0  0
 25 26  1  0  0  0
 26 27  1  0  0  0
 26 28  1  0  0  0
 28 29  1  0  0  0
  3  4  2  0  0  0
  4  5  1  0  0  0
  5  6  2  0  0  0
  6 30  1  0  0  0
 30 31  1  0  0  0
  6  7  1  0  0  0
  7 32  1  0  0  0
 32 33  1  0  0  0
 33 34  1  0  0  0
 34 35  1  0  0  0
 35 36  1  0  0  0
 36 37  1  0  0  0
 37 38  1  0  0  0
 38 39  1  0  0  0
 39 40  1  0  0  0
  7  8  2  0  0  0
  8  9  1  0  0  0
  9 10  2  0  0  0
 15 11  1  0  0  0
 10  1  1  0  0  0
 29 23  1  0  0  0
  9  4  1  0  0  0
 40 36  1  0  0  0
 17 18  1  0  0  0
 21 22  1  0  0  0
M  END
> <minimizedAffinity>
-7.32174

> <CNNscore>
0.6917923689

> <CNNaffinity>
7.3009390831

> <CNN_VS>
5.0507340431

> <CNNaffinity_variance>
0.0272675455

$$$$
[H]c1c(-c2nc3c([H])c(OC([H])([H])C([H])([H])C([H])([H])N4C([H])([H])C([H])([H])C([H])([H])C4([H])[H])c(OC([H])([H])[H])c([H])c3c(N([H])C3([H])C([H])([H])C([H])([H])N(C([H])([H])[H])C([H])([H])C3([H])[H])c2[H])oc(C([H])([H])N([H])C([H])([H])C([H])([H])[H])c1[H]


 40 44  0  0  0  0  0  0  0  0999 V2000
   36.4688  -17.4401   37.0345 C   0  0  0  0  0  0  0  0  0  0  0  0
   37.6714  -17.9151   36.5610 C   0  0  0  0  0  0  0  0  0  0  0  0
   37.9491  -19.2764   36.5065 C   0  0  0  0  0  0  0  0  0  0  0  0
   36.9319  -20.1046   36.9613 C   0  0  0  0  0  0  0  0  0  0  0  0
   37.0905  -21.4638   36.9541 C   0  0  0  0  0  0  0  0  0  0  0  0
   36.0706  -22.2893   37.4084 C   0  0  0  0  0  0  0  0  0  0  0  0
   34.8702  -21.8036   37.8811 C   0  0  0  0  0  0  0  0  0  0  0  0
   34.7083  -20.4361   37.8891 C   0  0  0  0  0  0  0  0  0  0  0  0
   35.7319  -19.6180   37.4335 C   0  0  0  0  0  0  0  0  0  0  0  0
   35.5450  -18.2931   37.4519 N   0  0  0  0  0  0  0  0  0  0  0  0
   35.2442  -14.0773   36.7581 C   0  0  0  0  0  0  0  0  0  0  0  0
   36.4266  -13.8352   37.4328 C   0  0  0  0  0  0  0  0  0  0  0  0
   37.0519  -15.0321   37.6346 C   0  0  0  0  0  0  0  0  0  0  0  0
   36.2232  -15.9840   37.0704 C   0  0  0  0  0  0  0  0  0  0  0  0
   35.1823  -15.3663   36.5735 O   0  0  0  0  0  0  0  0  0  0  0  0
   34.2616  -13.0532   36.3409 C   0  0  0  0  0  0  0  0  0  0  0  0
   32.9000  -13.4702   36.6430 N   0  0  0  0  0  0  0  0  0  0  0  0
   32.4062  -13.6233   35.7484 H   0  0  0  0  0  0  0  0  0  0  0  0
   32.2315  -12.8510   38.8604 C   0  0  0  0  0  0  0  0  0  0  0  0
   32.2101  -12.4506   37.4027 C   0  0  0  0  0  0  0  0  0  0  0  0
   39.1997  -19.7599   36.0368 N   0  0  0  0  0  0  0  0  0  0  0  0
   39.2331  -20.6040   35.4487 H   0  0  0  0  0  0  0  0  0  0  0  0
   40.3894  -19.0265   36.4218 C   0  0  0  0  0  0  0  0  0  0  0  0
   41.1991  -19.8197   37.4602 C   0  0  0  0  0  0  0  0  0  0  0  0
   42.2454  -18.8600   37.9610 C   0  0  0  0  0  0  0  0  0  0  0  0
   43.0276  -18.2246   36.9660 N   0  0  0  0  0  0  0  0  0  0  0  0
   44.3785  -18.6561   36.8515 C   0  0  0  0  0  0  0  0  0  0  0  0
   42.3857  -17.8425   35.7619 C   0  0  0  0  0  0  0  0  0  0  0  0
   41.3692  -18.8587   35.2719 C   0  0  0  0  0  0  0  0  0  0  0  0
   36.2273  -23.6671   37.4028 O   0  0  0  0  0  0  0  0  0  0  0  0
   37.1423  -24.2571   36.4875 C   0  0  0  0  0  0  0  0  0  0  0  0
   33.8597  -22.6579   38.3326 O   0  0  0  0  0  0  0  0  0  0  0  0
   32.8442  -23.0297   37.4222 C   0  0  0  0  0  0  0  0  0  0  0  0
   31.4792  -22.8625   38.0939 C   0  0  0  0  0  0  0  0  0  0  0  0
   30.4324  -22.9997   37.0229 C   0  0  0  0  0  0  0  0  0  0  0  0
   29.2466  -23.6848   37.5187 N   0  0  0  0  0  0  0  0  0  0  0  0
   29.3206  -25.0901   37.1595 C   0  0  0  0  0  0  0  0  0  0  0  0
   28.3733  -25.7712   38.1314 C   0  0  0  0  0  0  0  0  0  0  0  0
   28.5377  -24.9513   39.3876 C   0  0  0  0  0  0  0  0  0  0  0  0
   29.1878  -23.6505   38.9641 C   0  0  0  0  0  0  0  0  0  0  0  0
 19 20  1  0  0  0
 20 17  1  0  0  0
 17 16  1  0  0  0
 16 11  1  0  0  0
 11 12  2  0  0  0
 12 13  1  0  0  0
 13 14  2  0  0  0
 14 15  1  0  0  0
 14  1  1  0  0  0
  1  2  2  0  0  0
  2  3  1  0  0  0
  3 21  1  0  0  0
 21 23  1  0  0  0
 23 24  1  0  0  0
 24 25  1  0  0  0
 25 26  1  0  0  0
 26 27  1  0  0  0
 26 28  1  0  0  0
 28 29  1  0  0  0
  3  4  2  0  0  0
  4  5  1  0  0  0
  5  6  2  0  0  0
  6 30  1  0  0  0
 30 31  1  0  0  0
  6  7  1  0  0  0
  7 32  1  0  0  0
 32 33  1  0  0  0
 33 34  1  0  0  0
 34 35  1  0  0  0
 35 36  1  0  0  0
 36 37  1  0  0  0
 37 38  1  0  0  0
 38 39  1  0  0  0
 39 40  1  0  0  0
  7  8  2  0  0  0
  8  9  1  0  0  0
  9 10  2  0  0  0
 15 11  1  0  0  0
 10  1  1  0  0  0
 29 23  1  0  0  0
  9  4  1  0  0  0
 40 36  1  0  0  0
 17 18  1  0  0  0
 21 22  1  0  0  0
M  END
> <minimizedAffinity>
-5.59062

> <CNNscore>
0.3923462629

> <CNNaffinity>
6.2459530830

> <CNN_VS>
2.4505763054

> <CNNaffinity_variance>
0.0773805007

$$$$
[H]c1c(-c2nc3c([H])c(OC([H])([H])C([H])([H])C([H])([H])N4C([H])([H])C([H])([H])C([H])([H])C4([H])[H])c(OC([H])([H])[H])c([H])c3c(N([H])C3([H])C([H])([H])C([H])([H])N(C([H])([H])[H])C([H])([H])C3([H])[H])c2[H])oc(C([H])([H])N([H])C([H])([H])C([H])([H])[H])c1[H]


 40 44  0  0  0  0  0  0  0  0999 V2000
   34.4367  -19.4323   36.2036 C   0  0  0  0  0  0  0  0  0  0  0  0
   35.7761  -19.6498   36.4370 C   0  0  0  0  0  0  0  0  0  0  0  0
   36.6727  -18.5974   36.5847 C   0  0  0  0  0  0  0  0  0  0  0  0
   36.1166  -17.3297   36.4790 C   0  0  0  0  0  0  0  0  0  0  0  0
   36.9017  -16.2164   36.6084 C   0  0  0  0  0  0  0  0  0  0  0  0
   36.3422  -14.9499   36.5035 C   0  0  0  0  0  0  0  0  0  0  0  0
   34.9997  -14.7429   36.2691 C   0  0  0  0  0  0  0  0  0  0  0  0
   34.2076  -15.8618   36.1387 C   0  0  0  0  0  0  0  0  0  0  0  0
   34.7741  -17.1237   36.2449 C   0  0  0  0  0  0  0  0  0  0  0  0
   33.9790  -18.1922   36.1152 N   0  0  0  0  0  0  0  0  0  0  0  0
   32.3256  -22.1227   35.1128 C   0  0  0  0  0  0  0  0  0  0  0  0
   32.1877  -22.2645   36.4813 C   0  0  0  0  0  0  0  0  0  0  0  0
   32.9412  -21.2990   37.0852 C   0  0  0  0  0  0  0  0  0  0  0  0
   33.5257  -20.5856   36.0554 C   0  0  0  0  0  0  0  0  0  0  0  0
   33.1289  -21.1131   34.9258 O   0  0  0  0  0  0  0  0  0  0  0  0
   31.6761  -22.9671   34.0864 C   0  0  0  0  0  0  0  0  0  0  0  0
   31.6519  -24.3662   34.4880 N   0  0  0  0  0  0  0  0  0  0  0  0
   32.5837  -24.7699   34.2974 H   0  0  0  0  0  0  0  0  0  0  0  0
   31.1998  -25.3669   32.3570 C   0  0  0  0  0  0  0  0  0  0  0  0
   30.6516  -25.0953   33.7395 C   0  0  0  0  0  0  0  0  0  0  0  0
   38.0573  -18.8279   36.8043 N   0  0  0  0  0  0  0  0  0  0  0  0
   38.4200  -18.8829   37.7661 H   0  0  0  0  0  0  0  0  0  0  0  0
   38.9061  -18.9724   35.6381 C   0  0  0  0  0  0  0  0  0  0  0  0
   40.3609  -19.2351   36.0595 C   0  0  0  0  0  0  0  0  0  0  0  0
   41.1668  -19.1084   34.7942 C   0  0  0  0  0  0  0  0  0  0  0  0
   40.7223  -19.8873   33.6981 N   0  0  0  0  0  0  0  0  0  0  0  0
   41.5251  -21.0099   33.3526 C   0  0  0  0  0  0  0  0  0  0  0  0
   39.3252  -20.0324   33.5113 C   0  0  0  0  0  0  0  0  0  0  0  0
   38.5573  -20.1989   34.8108 C   0  0  0  0  0  0  0  0  0  0  0  0
   37.1343  -13.8192   36.6340 O   0  0  0  0  0  0  0  0  0  0  0  0
   38.0016  -13.7060   37.7556 C   0  0  0  0  0  0  0  0  0  0  0  0
   34.4623  -13.4560   36.1680 O   0  0  0  0  0  0  0  0  0  0  0  0
   33.0596  -13.3094   36.2643 C   0  0  0  0  0  0  0  0  0  0  0  0
   32.7289  -12.3860   37.4392 C   0  0  0  0  0  0  0  0  0  0  0  0
   31.2754  -12.0174   37.3247 C   0  0  0  0  0  0  0  0  0  0  0  0
   30.6330  -11.9625   38.6307 N   0  0  0  0  0  0  0  0  0  0  0  0
   29.1944  -12.0672   38.4611 C   0  0  0  0  0  0  0  0  0  0  0  0
   28.6934  -12.5231   39.8201 C   0  0  0  0  0  0  0  0  0  0  0  0
   29.8077  -13.4186   40.3034 C   0  0  0  0  0  0  0  0  0  0  0  0
   31.0160  -13.0917   39.4505 C   0  0  0  0  0  0  0  0  0  0  0  0
 19 20  1  0  0  0
 20 17  1  0  0  0
 17 16  1  0  0  0
 16 11  1  0  0  0
 11 12  2  0  0  0
 12 13  1  0  0  0
 13 14  2  0  0  0
 14 15  1  0  0  0
 14  1  1  0  0  0
  1  2  2  0  0  0
  2  3  1  0  0  0
  3 21  1  0  0  0
 21 23  1  0  0  0
 23 24  1  0  0  0
 24 25  1  0  0  0
 25 26  1  0  0  0
 26 27  1  0  0  0
 26 28  1  0  0  0
 28 29  1  0  0  0
  3  4  2  0  0  0
  4  5  1  0  0  0
  5  6  2  0  0  0
  6 30  1  0  0  0
 30 31  1  0  0  0
  6  7  1  0  0  0
  7 32  1  0  0  0
 32 33  1  0  0  0
 33 34  1  0  0  0
 34 35  1  0  0  0
 35 36  1  0  0  0
 36 37  1  0  0  0
 37 38  1  0  0  0
 38 39  1  0  0  0
 39 40  1  0  0  0
  7  8  2  0  0  0
  8  9  1  0  0  0
  9 10  2  0  0  0
 15 11  1  0  0  0
 10  1  1  0  0  0
 29 23  1  0  0  0
  9  4  1  0  0  0
 40 36  1  0  0  0
 17 18  1  0  0  0
 21 22  1  0  0  0
M  END
> <minimizedAffinity>
-6.99439

> <CNNscore>
0.3815355599

> <CNNaffinity>
6.5623893738

> <CNN_VS>
2.5037848949

> <CNNaffinity_variance>
0.0566439927

$$$$
[H]c1c(-c2nc3c([H])c(OC([H])([H])C([H])([H])C([H])([H])N4C([H])([H])C([H])([H])C([H])([H])C4([H])[H])c(OC([H])([H])[H])c([H])c3c(N([H])C3([H])C([H])([H])C([H])([H])N(C([H])([H])[H])C([H])([H])C3([H])[H])c2[H])oc(C([H])([H])N([H])C([H])([H])C([H])([H])[H])c1[H]


 40 44  0  0  0  0  0  0  0  0999 V2000
   36.5272  -17.3150   37.0152 C   0  0  0  0  0  0  0  0  0  0  0  0
   37.7344  -17.8965   36.6980 C   0  0  0  0  0  0  0  0  0  0  0  0
   37.8940  -19.2773   36.6634 C   0  0  0  0  0  0  0  0  0  0  0  0
   36.7556  -20.0104   36.9702 C   0  0  0  0  0  0  0  0  0  0  0  0
   36.7915  -21.3784   36.9669 C   0  0  0  0  0  0  0  0  0  0  0  0
   35.6508  -22.1086   37.2727 C   0  0  0  0  0  0  0  0  0  0  0  0
   34.4468  -21.5168   37.5895 C   0  0  0  0  0  0  0  0  0  0  0  0
   34.4083  -20.1402   37.5933 C   0  0  0  0  0  0  0  0  0  0  0  0
   35.5522  -19.4177   37.2865 C   0  0  0  0  0  0  0  0  0  0  0  0
   35.4838  -18.0813   37.2968 N   0  0  0  0  0  0  0  0  0  0  0  0
   35.6217  -13.8586   36.6720 C   0  0  0  0  0  0  0  0  0  0  0  0
   36.7848  -13.7183   37.4065 C   0  0  0  0  0  0  0  0  0  0  0  0
   37.2902  -14.9648   37.6417 C   0  0  0  0  0  0  0  0  0  0  0  0
   36.4103  -15.8428   37.0366 C   0  0  0  0  0  0  0  0  0  0  0  0
   35.4552  -15.1382   36.4860 O   0  0  0  0  0  0  0  0  0  0  0  0
   34.7566  -12.7540   36.2035 C   0  0  0  0  0  0  0  0  0  0  0  0
   33.3487  -13.1188   36.2677 N   0  0  0  0  0  0  0  0  0  0  0  0
   32.8402  -12.5567   35.5656 H   0  0  0  0  0  0  0  0  0  0  0  0
   33.0234  -11.3803   37.8860 C   0  0  0  0  0  0  0  0  0  0  0  0
   32.8095  -12.8457   37.5819 C   0  0  0  0  0  0  0  0  0  0  0  0
   39.1474  -19.8715   36.3563 N   0  0  0  0  0  0  0  0  0  0  0  0
   39.2790  -20.8839   36.4879 H   0  0  0  0  0  0  0  0  0  0  0  0
   40.1995  -19.0024   35.8674 C   0  0  0  0  0  0  0  0  0  0  0  0
   41.3497  -18.9237   36.8842 C   0  0  0  0  0  0  0  0  0  0  0  0
   42.2379  -17.8132   36.3897 C   0  0  0  0  0  0  0  0  0  0  0  0
   42.6526  -17.9090   35.0389 N   0  0  0  0  0  0  0  0  0  0  0  0
   44.0162  -18.2496   34.8183 C   0  0  0  0  0  0  0  0  0  0  0  0
   41.7205  -18.4025   34.0927 C   0  0  0  0  0  0  0  0  0  0  0  0
   40.8753  -19.5486   34.6203 C   0  0  0  0  0  0  0  0  0  0  0  0
   35.6829  -23.4950   37.2706 O   0  0  0  0  0  0  0  0  0  0  0  0
   36.7591  -24.1625   36.6229 C   0  0  0  0  0  0  0  0  0  0  0  0
   33.3132  -22.2766   37.8936 O   0  0  0  0  0  0  0  0  0  0  0  0
   32.0642  -21.8398   37.3957 C   0  0  0  0  0  0  0  0  0  0  0  0
   32.0489  -21.9887   35.8726 C   0  0  0  0  0  0  0  0  0  0  0  0
   31.0857  -20.9682   35.3319 C   0  0  0  0  0  0  0  0  0  0  0  0
   31.7606  -19.9875   34.4927 N   0  0  0  0  0  0  0  0  0  0  0  0
   32.0162  -18.7875   35.2700 C   0  0  0  0  0  0  0  0  0  0  0  0
   33.1345  -18.0894   34.5166 C   0  0  0  0  0  0  0  0  0  0  0  0
   33.9479  -19.2428   33.9824 C   0  0  0  0  0  0  0  0  0  0  0  0
   33.0588  -20.4659   34.0688 C   0  0  0  0  0  0  0  0  0  0  0  0
 19 20  1  0  0  0
 20 17  1  0  0  0
 17 16  1  0  0  0
 16 11  1  0  0  0
 11 12  2  0  0  0
 12 13  1  0  0  0
 13 14  2  0  0  0
 14 15  1  0  0  0
 14  1  1  0  0  0
  1  2  2  0  0  0
  2  3  1  0  0  0
  3 21  1  0  0  0
 21 23  1  0  0  0
 23 24  1  0  0  0
 24 25  1  0  0  0
 25 26  1  0  0  0
 26 27  1  0  0  0
 26 28  1  0  0  0
 28 29  1  0  0  0
  3  4  2  0  0  0
  4  5  1  0  0  0
  5  6  2  0  0  0
  6 30  1  0  0  0
 30 31  1  0  0  0
  6  7  1  0  0  0
  7 32  1  0  0  0
 32 33  1  0  0  0
 33 34  1  0  0  0
 34 35  1  0  0  0
 35 36  1  0  0  0
 36 37  1  0  0  0
 37 38  1  0  0  0
 38 39  1  0  0  0
 39 40  1  0  0  0
  7  8  2  0  0  0
  8  9  1  0  0  0
  9 10  2  0  0  0
 15 11  1  0  0  0
 10  1  1  0  0  0
 29 23  1  0  0  0
  9  4  1  0  0  0
 40 36  1  0  0  0
 17 18  1  0  0  0
 21 22  1  0  0  0
M  END
> <minimizedAffinity>
-6.77676

> <CNNscore>
0.3778629005

> <CNNaffinity>
6.6459732056

> <CNN_VS>
2.5112667084

> <CNNaffinity_variance>
0.4801648557

$$$$
[H]c1c(-c2nc3c([H])c(OC([H])([H])C([H])([H])C([H])([H])N4C([H])([H])C([H])([H])C([H])([H])C4([H])[H])c(OC([H])([H])[H])c([H])c3c(N([H])C3([H])C([H])([H])C([H])([H])N(C([H])([H])[H])C([H])([H])C3([H])[H])c2[H])oc(C([H])([H])N([H])C([H])([H])C([H])([H])[H])c1[H]


 40 44  0  0  0  0  0  0  0  0999 V2000
   34.2608  -19.8338   35.8120 C   0  0  0  0  0  0  0  0  0  0  0  0
   35.5628  -20.1147   36.1609 C   0  0  0  0  0  0  0  0  0  0  0  0
   36.4790  -19.1063   36.4388 C   0  0  0  0  0  0  0  0  0  0  0  0
   35.9822  -17.8139   36.3372 C   0  0  0  0  0  0  0  0  0  0  0  0
   36.7915  -16.7395   36.5892 C   0  0  0  0  0  0  0  0  0  0  0  0
   36.2912  -15.4482   36.4880 C   0  0  0  0  0  0  0  0  0  0  0  0
   34.9858  -15.1775   36.1374 C   0  0  0  0  0  0  0  0  0  0  0  0
   34.1696  -16.2571   35.8836 C   0  0  0  0  0  0  0  0  0  0  0  0
   34.6768  -17.5443   35.9869 C   0  0  0  0  0  0  0  0  0  0  0  0
   33.8593  -18.5735   35.7358 N   0  0  0  0  0  0  0  0  0  0  0  0
   32.2447  -22.8033   35.7666 C   0  0  0  0  0  0  0  0  0  0  0  0
   31.8263  -22.2249   34.5824 C   0  0  0  0  0  0  0  0  0  0  0  0
   32.5034  -21.0499   34.4226 C   0  0  0  0  0  0  0  0  0  0  0  0
   33.3267  -20.9421   35.5278 C   0  0  0  0  0  0  0  0  0  0  0  0
   33.1318  -21.9963   36.2779 O   0  0  0  0  0  0  0  0  0  0  0  0
   31.7616  -24.0875   36.3195 C   0  0  0  0  0  0  0  0  0  0  0  0
   31.8126  -24.0916   37.7743 N   0  0  0  0  0  0  0  0  0  0  0  0
   31.9772  -23.1220   38.0915 H   0  0  0  0  0  0  0  0  0  0  0  0
   32.3256  -25.8755   39.2913 C   0  0  0  0  0  0  0  0  0  0  0  0
   32.8863  -24.9386   38.2456 C   0  0  0  0  0  0  0  0  0  0  0  0
   37.8267  -19.4015   36.7776 N   0  0  0  0  0  0  0  0  0  0  0  0
   38.0510  -19.7601   37.7160 H   0  0  0  0  0  0  0  0  0  0  0  0
   38.8380  -19.1735   35.7644 C   0  0  0  0  0  0  0  0  0  0  0  0
   40.0862  -20.0250   36.0474 C   0  0  0  0  0  0  0  0  0  0  0  0
   41.1357  -19.5144   35.0963 C   0  0  0  0  0  0  0  0  0  0  0  0
   40.7587  -19.4588   33.7324 N   0  0  0  0  0  0  0  0  0  0  0  0
   41.3485  -20.4271   32.8728 C   0  0  0  0  0  0  0  0  0  0  0  0
   39.4296  -19.0738   33.4271 C   0  0  0  0  0  0  0  0  0  0  0  0
   38.4010  -19.6452   34.3871 C   0  0  0  0  0  0  0  0  0  0  0  0
   37.1079  -14.3567   36.7423 O   0  0  0  0  0  0  0  0  0  0  0  0
   37.4748  -14.0633   38.0849 C   0  0  0  0  0  0  0  0  0  0  0  0
   34.5081  -13.8669   36.0431 O   0  0  0  0  0  0  0  0  0  0  0  0
   33.7174  -13.3672   37.1031 C   0  0  0  0  0  0  0  0  0  0  0  0
   32.4234  -12.7810   36.5336 C   0  0  0  0  0  0  0  0  0  0  0  0
   31.5930  -12.3131   37.6968 C   0  0  0  0  0  0  0  0  0  0  0  0
   31.8931  -10.9315   38.0468 N   0  0  0  0  0  0  0  0  0  0  0  0
   33.1963  -10.5750   37.5138 C   0  0  0  0  0  0  0  0  0  0  0  0
   33.1732   -9.0576   37.4628 C   0  0  0  0  0  0  0  0  0  0  0  0
   31.7329   -8.7568   37.1279 C   0  0  0  0  0  0  0  0  0  0  0  0
   30.9533  -10.0194   37.4315 C   0  0  0  0  0  0  0  0  0  0  0  0
 19 20  1  0  0  0
 20 17  1  0  0  0
 17 16  1  0  0  0
 16 11  1  0  0  0
 11 12  2  0  0  0
 12 13  1  0  0  0
 13 14  2  0  0  0
 14 15  1  0  0  0
 14  1  1  0  0  0
  1  2  2  0  0  0
  2  3  1  0  0  0
  3 21  1  0  0  0
 21 23  1  0  0  0
 23 24  1  0  0  0
 24 25  1  0  0  0
 25 26  1  0  0  0
 26 27  1  0  0  0
 26 28  1  0  0  0
 28 29  1  0  0  0
  3  4  2  0  0  0
  4  5  1  0  0  0
  5  6  2  0  0  0
  6 30  1  0  0  0
 30 31  1  0  0  0
  6  7  1  0  0  0
  7 32  1  0  0  0
 32 33  1  0  0  0
 33 34  1  0  0  0
 34 35  1  0  0  0
 35 36  1  0  0  0
 36 37  1  0  0  0
 37 38  1  0  0  0
 38 39  1  0  0  0
 39 40  1  0  0  0
  7  8  2  0  0  0
  8  9  1  0  0  0
  9 10  2  0  0  0
 15 11  1  0  0  0
 10  1  1  0  0  0
 29 23  1  0  0  0
  9  4  1  0  0  0
 40 36  1  0  0  0
 17 18  1  0  0  0
 21 22  1  0  0  0
M  END
> <minimizedAffinity>
-6.63576

> <CNNscore>
0.3571628332

> <CNNaffinity>
6.5798707008

> <CNN_VS>
2.3500852585

> <CNNaffinity_variance>
0.1029674560

$$$$
[H]c1c(-c2nc3c([H])c(OC([H])([H])C([H])([H])C([H])([H])N4C([H])([H])C([H])([H])C([H])([H])C4([H])[H])c(OC([H])([H])[H])c([H])c3c(N([H])C3([H])C([H])([H])C([H])([H])N(C([H])([H])[H])C([H])([H])C3([H])[H])c2[H])oc(C([H])([H])N([H])C([H])([H])C([H])([H])[H])c1[H]


 40 44  0  0  0  0  0  0  0  0999 V2000
   35.3734  -16.3219   35.9822 C   0  0  0  0  0  0  0  0  0  0  0  0
   34.5510  -17.2939   35.4579 C   0  0  0  0  0  0  0  0  0  0  0  0
   34.9956  -18.5953   35.2533 C   0  0  0  0  0  0  0  0  0  0  0  0
   36.3152  -18.8313   35.6145 C   0  0  0  0  0  0  0  0  0  0  0  0
   36.8633  -20.0756   35.4600 C   0  0  0  0  0  0  0  0  0  0  0  0
   38.1830  -20.3087   35.8236 C   0  0  0  0  0  0  0  0  0  0  0  0
   38.9983  -19.3284   36.3474 C   0  0  0  0  0  0  0  0  0  0  0  0
   38.4489  -18.0754   36.5040 C   0  0  0  0  0  0  0  0  0  0  0  0
   37.1296  -17.8505   36.1384 C   0  0  0  0  0  0  0  0  0  0  0  0
   36.6229  -16.6231   36.3036 N   0  0  0  0  0  0  0  0  0  0  0  0
   34.8266  -12.8096   36.4813 C   0  0  0  0  0  0  0  0  0  0  0  0
   33.5138  -13.2415   36.4394 C   0  0  0  0  0  0  0  0  0  0  0  0
   33.5186  -14.5938   36.2503 C   0  0  0  0  0  0  0  0  0  0  0  0
   34.8514  -14.9545   36.1810 C   0  0  0  0  0  0  0  0  0  0  0  0
   35.5688  -13.8696   36.3226 O   0  0  0  0  0  0  0  0  0  0  0  0
   35.2711  -11.4114   36.6704 C   0  0  0  0  0  0  0  0  0  0  0  0
   35.6920  -10.8135   35.4116 N   0  0  0  0  0  0  0  0  0  0  0  0
   36.6845  -11.0562   35.2581 H   0  0  0  0  0  0  0  0  0  0  0  0
   34.6064   -9.0267   36.5843 C   0  0  0  0  0  0  0  0  0  0  0  0
   35.5521   -9.3745   35.4573 C   0  0  0  0  0  0  0  0  0  0  0  0
   34.1491  -19.5887   34.6922 N   0  0  0  0  0  0  0  0  0  0  0  0
   34.4721  -20.1385   33.8842 H   0  0  0  0  0  0  0  0  0  0  0  0
   32.8450  -19.7774   35.2964 C   0  0  0  0  0  0  0  0  0  0  0  0
   31.7315  -19.4772   34.2800 C   0  0  0  0  0  0  0  0  0  0  0  0
   30.4589  -19.4557   35.0843 C   0  0  0  0  0  0  0  0  0  0  0  0
   30.2227  -20.5911   35.8971 N   0  0  0  0  0  0  0  0  0  0  0  0
   29.1949  -21.4754   35.4660 C   0  0  0  0  0  0  0  0  0  0  0  0
   31.3344  -21.1868   36.5431 C   0  0  0  0  0  0  0  0  0  0  0  0
   32.5836  -21.2246   35.6805 C   0  0  0  0  0  0  0  0  0  0  0  0
   38.7422  -21.5681   35.6685 O   0  0  0  0  0  0  0  0  0  0  0  0
   39.4056  -21.8870   34.4514 C   0  0  0  0  0  0  0  0  0  0  0  0
   40.3242  -19.5907   36.7053 O   0  0  0  0  0  0  0  0  0  0  0  0
   41.3523  -19.0343   35.9102 C   0  0  0  0  0  0  0  0  0  0  0  0
   42.2776  -18.1973   36.7965 C   0  0  0  0  0  0  0  0  0  0  0  0
   43.6118  -18.8903   36.8325 C   0  0  0  0  0  0  0  0  0  0  0  0
   44.1782  -18.8909   38.1744 N   0  0  0  0  0  0  0  0  0  0  0  0
   43.2123  -18.3281   39.1017 C   0  0  0  0  0  0  0  0  0  0  0  0
   43.6556  -18.8467   40.4583 C   0  0  0  0  0  0  0  0  0  0  0  0
   44.1902  -20.2197   40.1323 C   0  0  0  0  0  0  0  0  0  0  0  0
   44.4284  -20.2390   38.6366 C   0  0  0  0  0  0  0  0  0  0  0  0
 19 20  1  0  0  0
 20 17  1  0  0  0
 17 16  1  0  0  0
 16 11  1  0  0  0
 11 12  2  0  0  0
 12 13  1  0  0  0
 13 14  2  0  0  0
 14 15  1  0  0  0
 14  1  1  0  0  0
  1  2  2  0  0  0
  2  3  1  0  0  0
  3 21  1  0  0  0
 21 23  1  0  0  0
 23 24  1  0  0  0
 24 25  1  0  0  0
 25 26  1  0  0  0
 26 27  1  0  0  0
 26 28  1  0  0  0
 28 29  1  0  0  0
  3  4  2  0  0  0
  4  5  1  0  0  0
  5  6  2  0  0  0
  6 30  1  0  0  0
 30 31  1  0  0  0
  6  7  1  0  0  0
  7 32  1  0  0  0
 32 33  1  0  0  0
 33 34  1  0  0  0
 34 35  1  0  0  0
 35 36  1  0  0  0
 36 37  1  0  0  0
 37 38  1  0  0  0
 38 39  1  0  0  0
 39 40  1  0  0  0
  7  8  2  0  0  0
  8  9  1  0  0  0
  9 10  2  0  0  0
 15 11  1  0  0  0
 10  1  1  0  0  0
 29 23  1  0  0  0
  9  4  1  0  0  0
 40 36  1  0  0  0
 17 18  1  0  0  0
 21 22  1  0  0  0
M  END
> <minimizedAffinity>
-7.11018

> <CNNscore>
0.3404355347

> <CNNaffinity>
6.5493125916

> <CNN_VS>
2.2296187878

> <CNNaffinity_variance>
0.0881208032

$$$$
[H]c1c(-c2nc3c([H])c(OC([H])([H])C([H])([H])C([H])([H])N4C([H])([H])C([H])([H])C([H])([H])C4([H])[H])c(OC([H])([H])[H])c([H])c3c(N([H])C3([H])C([H])([H])C([H])([H])N(C([H])([H])[H])C([H])([H])C3([H])[H])c2[H])oc(C([H])([H])N([H])C([H])([H])C([H])([H])[H])c1[H]


 40 44  0  0  0  0  0  0  0  0999 V2000
   35.0776  -20.7252   40.2972 C   0  0  0  0  0  0  0  0  0  0  0  0
   36.3365  -21.2801   40.3531 C   0  0  0  0  0  0  0  0  0  0  0  0
   37.2566  -21.1101   39.3246 C   0  0  0  0  0  0  0  0  0  0  0  0
   36.8098  -20.3478   38.2537 C   0  0  0  0  0  0  0  0  0  0  0  0
   37.6286  -20.1112   37.1831 C   0  0  0  0  0  0  0  0  0  0  0  0
   37.1792  -19.3472   36.1142 C   0  0  0  0  0  0  0  0  0  0  0  0
   35.9164  -18.7964   36.0678 C   0  0  0  0  0  0  0  0  0  0  0  0
   35.0907  -19.0331   37.1441 C   0  0  0  0  0  0  0  0  0  0  0  0
   35.5471  -19.7973   38.2083 C   0  0  0  0  0  0  0  0  0  0  0  0
   34.7226  -20.0089   39.2408 N   0  0  0  0  0  0  0  0  0  0  0  0
   32.6476  -20.5086   42.9302 C   0  0  0  0  0  0  0  0  0  0  0  0
   32.9749  -21.8482   43.0310 C   0  0  0  0  0  0  0  0  0  0  0  0
   33.9148  -22.1272   42.0807 C   0  0  0  0  0  0  0  0  0  0  0  0
   34.1380  -20.9349   41.4174 C   0  0  0  0  0  0  0  0  0  0  0  0
   33.3690  -20.0249   41.9581 O   0  0  0  0  0  0  0  0  0  0  0  0
   31.6664  -19.7925   43.7745 C   0  0  0  0  0  0  0  0  0  0  0  0
   30.5708  -19.2588   42.9782 N   0  0  0  0  0  0  0  0  0  0  0  0
   30.7546  -19.4868   41.9874 H   0  0  0  0  0  0  0  0  0  0  0  0
   31.5163  -17.3886   44.1424 C   0  0  0  0  0  0  0  0  0  0  0  0
   30.4804  -17.8231   43.1307 C   0  0  0  0  0  0  0  0  0  0  0  0
   38.5467  -21.7026   39.3781 N   0  0  0  0  0  0  0  0  0  0  0  0
   38.8340  -22.3686   38.6477 H   0  0  0  0  0  0  0  0  0  0  0  0
   39.4082  -21.3344   40.4842 C   0  0  0  0  0  0  0  0  0  0  0  0
   39.9326  -22.5896   41.2001 C   0  0  0  0  0  0  0  0  0  0  0  0
   40.5869  -22.0820   42.4575 C   0  0  0  0  0  0  0  0  0  0  0  0
   41.5506  -21.0591   42.2826 N   0  0  0  0  0  0  0  0  0  0  0  0
   42.9103  -21.4311   42.4744 C   0  0  0  0  0  0  0  0  0  0  0  0
   41.3015  -20.0758   41.2931 C   0  0  0  0  0  0  0  0  0  0  0  0
   40.6799  -20.6387   40.0270 C   0  0  0  0  0  0  0  0  0  0  0  0
   38.0057  -19.1052   35.0274 O   0  0  0  0  0  0  0  0  0  0  0  0
   38.3314  -20.1777   34.1517 C   0  0  0  0  0  0  0  0  0  0  0  0
   35.4895  -18.0308   34.9785 O   0  0  0  0  0  0  0  0  0  0  0  0
   34.9193  -18.7029   33.8733 C   0  0  0  0  0  0  0  0  0  0  0  0
   33.7084  -19.5114   34.3452 C   0  0  0  0  0  0  0  0  0  0  0  0
   32.5647  -18.5494   34.5130 C   0  0  0  0  0  0  0  0  0  0  0  0
   31.5621  -19.0661   35.4345 N   0  0  0  0  0  0  0  0  0  0  0  0
   30.3480  -19.3721   34.6985 C   0  0  0  0  0  0  0  0  0  0  0  0
   29.6088  -20.3509   35.5937 C   0  0  0  0  0  0  0  0  0  0  0  0
   30.7309  -21.1338   36.2303 C   0  0  0  0  0  0  0  0  0  0  0  0
   31.9891  -20.3155   36.0264 C   0  0  0  0  0  0  0  0  0  0  0  0
 19 20  1  0  0  0
 20 17  1  0  0  0
 17 16  1  0  0  0
 16 11  1  0  0  0
 11 12  2  0  0  0
 12 13  1  0  0  0
 13 14  2  0  0  0
 14 15  1  0  0  0
 14  1  1  0  0  0
  1  2  2  0  0  0
  2  3  1  0  0  0
  3 21  1  0  0  0
 21 23  1  0  0  0
 23 24  1  0  0  0
 24 25  1  0  0  0
 25 26  1  0  0  0
 26 27  1  0  0  0
 26 28  1  0  0  0
 28 29  1  0  0  0
  3  4  2  0  0  0
  4  5  1  0  0  0
  5  6  2  0  0  0
  6 30  1  0  0  0
 30 31  1  0  0  0
  6  7  1  0  0  0
  7 32  1  0  0  0
 32 33  1  0  0  0
 33 34  1  0  0  0
 34 35  1  0  0  0
 35 36  1  0  0  0
 36 37  1  0  0  0
 37 38  1  0  0  0
 38 39  1  0  0  0
 39 40  1  0  0  0
  7  8  2  0  0  0
  8  9  1  0  0  0
  9 10  2  0  0  0
 15 11  1  0  0  0
 10  1  1  0  0  0
 29 23  1  0  0  0
  9  4  1  0  0  0
 40 36  1  0  0  0
 17 18  1  0  0  0
 21 22  1  0  0  0
M  END
> <minimizedAffinity>
-5.63722

> <CNNscore>
0.3090263605

> <CNNaffinity>
5.6854257584

> <CNN_VS>
1.7569464445

> <CNNaffinity_variance>
0.4643582702

$$$$
[H]c1c(C2([H])C([H])([H])C([H])([H])C([H])([H])C([H])([H])C2([H])[H])nc2c([H])c(OC([H])([H])C([H])([H])C([H])([H])N3C([H])([H])C([H])([H])C([H])([H])C3([H])[H])c(OC([H])([H])[H])c([H])c2c1N([H])C1([H])C([H])([H])C([H])([H])N(C([H])([H])[H])C([H])([H])C1([H])[H]


 36 40  0  0  0  0  0  0  0  0999 V2000
   36.2279  -14.1140   36.8848 C   0  0  0  0  0  0  0  0  0  0  0  0
   36.6044  -15.2938   36.2728 C   0  0  0  0  0  0  0  0  0  0  0  0
   35.7098  -16.2084   35.7637 C   0  0  0  0  0  0  0  0  0  0  0  0
   36.0698  -17.3880   35.1560 C   0  0  0  0  0  0  0  0  0  0  0  0
   35.0633  -18.2260   34.6886 C   0  0  0  0  0  0  0  0  0  0  0  0
   33.7430  -17.8926   34.8250 C   0  0  0  0  0  0  0  0  0  0  0  0
   33.4198  -16.7368   35.4210 N   0  0  0  0  0  0  0  0  0  0  0  0
   34.3683  -15.8952   35.8893 C   0  0  0  0  0  0  0  0  0  0  0  0
   33.9329  -14.7358   36.4879 C   0  0  0  0  0  0  0  0  0  0  0  0
   34.8787  -13.8496   36.9839 C   0  0  0  0  0  0  0  0  0  0  0  0
   32.6488  -18.7685   34.3352 C   0  0  0  0  0  0  0  0  0  0  0  0
   33.1597  -20.1361   33.9426 C   0  0  0  0  0  0  0  0  0  0  0  0
   32.6176  -21.2463   34.7941 C   0  0  0  0  0  0  0  0  0  0  0  0
   31.1073  -21.2645   34.8295 C   0  0  0  0  0  0  0  0  0  0  0  0
   30.5217  -19.8711   34.7866 C   0  0  0  0  0  0  0  0  0  0  0  0
   31.5491  -18.9192   35.3602 C   0  0  0  0  0  0  0  0  0  0  0  0
   38.4771  -13.2427   37.4963 C   0  0  0  0  0  0  0  0  0  0  0  0
   37.0982  -13.2080   37.3898 O   0  0  0  0  0  0  0  0  0  0  0  0
   37.4327  -17.7465   35.0385 N   0  0  0  0  0  0  0  0  0  0  0  0
   38.1420  -17.0053   34.8695 H   0  0  0  0  0  0  0  0  0  0  0  0
   37.9138  -19.1135   35.1478 C   0  0  0  0  0  0  0  0  0  0  0  0
   38.3365  -19.7041   33.8335 C   0  0  0  0  0  0  0  0  0  0  0  0
   39.1303  -20.9674   34.1753 C   0  0  0  0  0  0  0  0  0  0  0  0
   38.7445  -21.4567   35.4925 N   0  0  0  0  0  0  0  0  0  0  0  0
   39.0649  -22.8450   35.6788 C   0  0  0  0  0  0  0  0  0  0  0  0
   39.3873  -20.6150   36.4870 C   0  0  0  0  0  0  0  0  0  0  0  0
   39.1278  -19.1740   36.0670 C   0  0  0  0  0  0  0  0  0  0  0  0
   34.4100  -12.6895   37.5801 O   0  0  0  0  0  0  0  0  0  0  0  0
   33.2002  -12.6802   38.3191 C   0  0  0  0  0  0  0  0  0  0  0  0
   32.3360  -11.5389   37.8438 C   0  0  0  0  0  0  0  0  0  0  0  0
   31.0712  -11.9524   37.1917 C   0  0  0  0  0  0  0  0  0  0  0  0
   29.8686  -11.8908   37.8430 N   0  0  0  0  0  0  0  0  0  0  0  0
   29.6340  -12.4389   39.1137 C   0  0  0  0  0  0  0  0  0  0  0  0
   28.1188  -12.7384   39.0032 C   0  0  0  0  0  0  0  0  0  0  0  0
   27.6505  -11.5044   38.2245 C   0  0  0  0  0  0  0  0  0  0  0  0
   28.9324  -10.8625   37.6675 C   0  0  0  0  0  0  0  0  0  0  0  0
 17 18  1  0  0  0
 18  1  1  0  0  0
  1  2  2  0  0  0
  2  3  1  0  0  0
  3  4  2  0  0  0
  4 19  1  0  0  0
 19 21  1  0  0  0
 21 22  1  0  0  0
 22 23  1  0  0  0
 23 24  1  0  0  0
 24 25  1  0  0  0
 24 26  1  0  0  0
 26 27  1  0  0  0
  4  5  1  0  0  0
  5  6  2  0  0  0
  6  7  1  0  0  0
  7  8  2  0  0  0
  8  9  1  0  0  0
  9 10  2  0  0  0
 10 28  1  0  0  0
 28 29  1  0  0  0
 29 30  1  0  0  0
 30 31  1  0  0  0
 31 32  1  0  0  0
 32 33  1  0  0  0
 33 34  1  0  0  0
 34 35  1  0  0  0
 35 36  1  0  0  0
  6 11  1  0  0  0
 11 12  1  0  0  0
 12 13  1  0  0  0
 13 14  1  0  0  0
 14 15  1  0  0  0
 15 16  1  0  0  0
 10  1  1  0  0  0
 36 32  1  0  0  0
 16 11  1  0  0  0
  8  3  1  0  0  0
 27 21  1  0  0  0
 19 20  1  0  0  0
M  END
> <minimizedAffinity>
-8.91553

> <CNNscore>
0.9200053811

> <CNNaffinity>
7.4960274696

> <CNN_VS>
6.8963856697

> <CNNaffinity_variance>
0.0416463241

$$$$
[H]c1c(C2([H])C([H])([H])C([H])([H])C([H])([H])C([H])([H])C2([H])[H])nc2c([H])c(OC([H])([H])C([H])([H])C([H])([H])N3C([H])([H])C([H])([H])C([H])([H])C3([H])[H])c(OC([H])([H])[H])c([H])c2c1N([H])C1([H])C([H])([H])C([H])([H])N(C([H])([H])[H])C([H])([H])C1([H])[H]


 36 40  0  0  0  0  0  0  0  0999 V2000
   36.6877  -14.6942   37.4548 C   0  0  0  0  0  0  0  0  0  0  0  0
   36.8659  -16.0281   37.1430 C   0  0  0  0  0  0  0  0  0  0  0  0
   35.9176  -16.7955   36.5043 C   0  0  0  0  0  0  0  0  0  0  0  0
   36.0795  -18.1245   36.1915 C   0  0  0  0  0  0  0  0  0  0  0  0
   35.0384  -18.7847   35.5481 C   0  0  0  0  0  0  0  0  0  0  0  0
   33.8768  -18.1352   35.2291 C   0  0  0  0  0  0  0  0  0  0  0  0
   33.7452  -16.8397   35.5453 N   0  0  0  0  0  0  0  0  0  0  0  0
   34.7336  -16.1624   36.1712 C   0  0  0  0  0  0  0  0  0  0  0  0
   34.4989  -14.8371   36.4550 C   0  0  0  0  0  0  0  0  0  0  0  0
   35.4899  -14.1112   37.1006 C   0  0  0  0  0  0  0  0  0  0  0  0
   32.7499  -18.8158   34.5425 C   0  0  0  0  0  0  0  0  0  0  0  0
   33.1037  -20.2343   34.1576 C   0  0  0  0  0  0  0  0  0  0  0  0
   32.2801  -21.2708   34.8639 C   0  0  0  0  0  0  0  0  0  0  0  0
   30.7961  -21.0549   34.6806 C   0  0  0  0  0  0  0  0  0  0  0  0
   30.4386  -19.5868   34.6257 C   0  0  0  0  0  0  0  0  0  0  0  0
   31.4988  -18.8231   35.3895 C   0  0  0  0  0  0  0  0  0  0  0  0
   38.6149  -13.1246   37.5738 C   0  0  0  0  0  0  0  0  0  0  0  0
   37.6122  -13.9302   38.0832 O   0  0  0  0  0  0  0  0  0  0  0  0
   37.2685  -18.8038   36.5446 N   0  0  0  0  0  0  0  0  0  0  0  0
   37.4546  -19.0194   37.5445 H   0  0  0  0  0  0  0  0  0  0  0  0
   38.2633  -19.2335   35.5763 C   0  0  0  0  0  0  0  0  0  0  0  0
   38.2599  -18.4181   34.3153 C   0  0  0  0  0  0  0  0  0  0  0  0
   39.5640  -18.7586   33.5900 C   0  0  0  0  0  0  0  0  0  0  0  0
   40.0435  -20.0672   34.0155 N   0  0  0  0  0  0  0  0  0  0  0  0
   40.9534  -20.6533   33.0705 C   0  0  0  0  0  0  0  0  0  0  0  0
   40.6492  -19.9155   35.3273 C   0  0  0  0  0  0  0  0  0  0  0  0
   39.6621  -19.1180   36.1699 C   0  0  0  0  0  0  0  0  0  0  0  0
   35.2252  -12.7780   37.3717 O   0  0  0  0  0  0  0  0  0  0  0  0
   34.1457  -12.1019   36.7494 C   0  0  0  0  0  0  0  0  0  0  0  0
   32.9973  -11.9979   37.7218 C   0  0  0  0  0  0  0  0  0  0  0  0
   31.6828  -12.4027   37.1702 C   0  0  0  0  0  0  0  0  0  0  0  0
   30.5050  -11.9768   37.7229 N   0  0  0  0  0  0  0  0  0  0  0  0
   29.9956  -12.4443   38.9444 C   0  0  0  0  0  0  0  0  0  0  0  0
   28.4794  -12.2499   38.6969 C   0  0  0  0  0  0  0  0  0  0  0  0
   28.4930  -10.9184   37.9384 C   0  0  0  0  0  0  0  0  0  0  0  0
   29.9565  -10.7033   37.5174 C   0  0  0  0  0  0  0  0  0  0  0  0
 17 18  1  0  0  0
 18  1  1  0  0  0
  1  2  2  0  0  0
  2  3  1  0  0  0
  3  4  2  0  0  0
  4 19  1  0  0  0
 19 21  1  0  0  0
 21 22  1  0  0  0
 22 23  1  0  0  0
 23 24  1  0  0  0
 24 25  1  0  0  0
 24 26  1  0  0  0
 26 27  1  0  0  0
  4  5  1  0  0  0
  5  6  2  0  0  0
  6  7  1  0  0  0
  7  8  2  0  0  0
  8  9  1  0  0  0
  9 10  2  0  0  0
 10 28  1  0  0  0
 28 29  1  0  0  0
 29 30  1  0  0  0
 30 31  1  0  0  0
 31 32  1  0  0  0
 32 33  1  0  0  0
 33 34  1  0  0  0
 34 35  1  0  0  0
 35 36  1  0  0  0
  6 11  1  0  0  0
 11 12  1  0  0  0
 12 13  1  0  0  0
 13 14  1  0  0  0
 14 15  1  0  0  0
 15 16  1  0  0  0
 10  1  1  0  0  0
 36 32  1  0  0  0
 16 11  1  0  0  0
  8  3  1  0  0  0
 27 21  1  0  0  0
 19 20  1  0  0  0
M  END
> <minimizedAffinity>
-8.69712

> <CNNscore>
0.8759000897

> <CNNaffinity>
7.5592880249

> <CNN_VS>
6.6211810112

> <CNNaffinity_variance>
0.0109613407

$$$$
[H]c1c(C2([H])C([H])([H])C([H])([H])C([H])([H])C([H])([H])C2([H])[H])nc2c([H])c(OC([H])([H])C([H])([H])C([H])([H])N3C([H])([H])C([H])([H])C([H])([H])C3([H])[H])c(OC([H])([H])[H])c([H])c2c1N([H])C1([H])C([H])([H])C([H])([H])N(C([H])([H])[H])C([H])([H])C1([H])[H]


 36 40  0  0  0  0  0  0  0  0999 V2000
   36.2165  -14.7199   36.3787 C   0  0  0  0  0  0  0  0  0  0  0  0
   36.4861  -15.8820   35.6822 C   0  0  0  0  0  0  0  0  0  0  0  0
   35.5200  -16.7898   35.3098 C   0  0  0  0  0  0  0  0  0  0  0  0
   35.7741  -17.9519   34.6203 C   0  0  0  0  0  0  0  0  0  0  0  0
   34.7046  -18.7848   34.3100 C   0  0  0  0  0  0  0  0  0  0  0  0
   33.4260  -18.4634   34.6772 C   0  0  0  0  0  0  0  0  0  0  0  0
   33.2062  -17.3246   35.3482 N   0  0  0  0  0  0  0  0  0  0  0  0
   34.2187  -16.4884   35.6694 C   0  0  0  0  0  0  0  0  0  0  0  0
   33.8889  -15.3468   36.3623 C   0  0  0  0  0  0  0  0  0  0  0  0
   34.9032  -14.4668   36.7123 C   0  0  0  0  0  0  0  0  0  0  0  0
   32.2664  -19.3342   34.3587 C   0  0  0  0  0  0  0  0  0  0  0  0
   32.6563  -20.7943   34.3218 C   0  0  0  0  0  0  0  0  0  0  0  0
   31.9934  -21.6195   35.3854 C   0  0  0  0  0  0  0  0  0  0  0  0
   30.4876  -21.4999   35.3566 C   0  0  0  0  0  0  0  0  0  0  0  0
   30.0358  -20.1122   34.9613 C   0  0  0  0  0  0  0  0  0  0  0  0
   31.1340  -19.1421   35.3403 C   0  0  0  0  0  0  0  0  0  0  0  0
   37.9324  -13.7458   37.8948 C   0  0  0  0  0  0  0  0  0  0  0  0
   37.1579  -13.8208   36.7509 O   0  0  0  0  0  0  0  0  0  0  0  0
   37.0979  -18.2985   34.2640 N   0  0  0  0  0  0  0  0  0  0  0  0
   37.3797  -18.2734   33.2635 H   0  0  0  0  0  0  0  0  0  0  0  0
   38.1111  -18.6896   35.2296 C   0  0  0  0  0  0  0  0  0  0  0  0
   37.6021  -19.6359   36.2785 C   0  0  0  0  0  0  0  0  0  0  0  0
   38.8433  -20.2097   36.9662 C   0  0  0  0  0  0  0  0  0  0  0  0
   39.9685  -19.2980   36.8044 N   0  0  0  0  0  0  0  0  0  0  0  0
   40.9944  -19.5109   37.7875 C   0  0  0  0  0  0  0  0  0  0  0  0
   40.4756  -19.4509   35.4515 C   0  0  0  0  0  0  0  0  0  0  0  0
   39.2662  -19.3930   34.5272 C   0  0  0  0  0  0  0  0  0  0  0  0
   34.5401  -13.3246   37.4083 O   0  0  0  0  0  0  0  0  0  0  0  0
   33.5421  -12.4481   36.9127 C   0  0  0  0  0  0  0  0  0  0  0  0
   32.4519  -12.3016   37.9448 C   0  0  0  0  0  0  0  0  0  0  0  0
   31.2726  -11.5272   37.4914 C   0  0  0  0  0  0  0  0  0  0  0  0
   30.0782  -11.5726   38.1587 N   0  0  0  0  0  0  0  0  0  0  0  0
   28.8664  -11.0961   37.6346 C   0  0  0  0  0  0  0  0  0  0  0  0
   28.1349  -10.7181   38.9459 C   0  0  0  0  0  0  0  0  0  0  0  0
   28.5729  -11.8760   39.8490 C   0  0  0  0  0  0  0  0  0  0  0  0
   29.7505  -12.5417   39.1171 C   0  0  0  0  0  0  0  0  0  0  0  0
 17 18  1  0  0  0
 18  1  1  0  0  0
  1  2  2  0  0  0
  2  3  1  0  0  0
  3  4  2  0  0  0
  4 19  1  0  0  0
 19 21  1  0  0  0
 21 22  1  0  0  0
 22 23  1  0  0  0
 23 24  1  0  0  0
 24 25  1  0  0  0
 24 26  1  0  0  0
 26 27  1  0  0  0
  4  5  1  0  0  0
  5  6  2  0  0  0
  6  7  1  0  0  0
  7  8  2  0  0  0
  8  9  1  0  0  0
  9 10  2  0  0  0
 10 28  1  0  0  0
 28 29  1  0  0  0
 29 30  1  0  0  0
 30 31  1  0  0  0
 31 32  1  0  0  0
 32 33  1  0  0  0
 33 34  1  0  0  0
 34 35  1  0  0  0
 35 36  1  0  0  0
  6 11  1  0  0  0
 11 12  1  0  0  0
 12 13  1  0  0  0
 13 14  1  0  0  0
 14 15  1  0  0  0
 15 16  1  0  0  0
 10  1  1  0  0  0
 36 32  1  0  0  0
 16 11  1  0  0  0
  8  3  1  0  0  0
 27 21  1  0  0  0
 19 20  1  0  0  0
M  END
> <minimizedAffinity>
-8.11128

> <CNNscore>
0.8595889807

> <CNNaffinity>
7.3944330215

> <CNN_VS>
6.3561730385

> <CNNaffinity_variance>
0.0560683496

$$$$
[H]c1c(C2([H])C([H])([H])C([H])([H])C([H])([H])C([H])([H])C2([H])[H])nc2c([H])c(OC([H])([H])C([H])([H])C([H])([H])N3C([H])([H])C([H])([H])C([H])([H])C3([H])[H])c(OC([H])([H])[H])c([H])c2c1N([H])C1([H])C([H])([H])C([H])([H])N(C([H])([H])[H])C([H])([H])C1([H])[H]


 36 40  0  0  0  0  0  0  0  0999 V2000
   32.4753  -20.5734   34.2820 C   0  0  0  0  0  0  0  0  0  0  0  0
   33.7832  -20.1322   34.2275 C   0  0  0  0  0  0  0  0  0  0  0  0
   34.2129  -18.9488   34.7852 C   0  0  0  0  0  0  0  0  0  0  0  0
   35.5100  -18.4953   34.7352 C   0  0  0  0  0  0  0  0  0  0  0  0
   35.8092  -17.2779   35.3369 C   0  0  0  0  0  0  0  0  0  0  0  0
   34.8424  -16.5419   35.9668 C   0  0  0  0  0  0  0  0  0  0  0  0
   33.5863  -17.0072   36.0010 N   0  0  0  0  0  0  0  0  0  0  0  0
   33.2547  -18.1856   35.4278 C   0  0  0  0  0  0  0  0  0  0  0  0
   31.9377  -18.5730   35.5150 C   0  0  0  0  0  0  0  0  0  0  0  0
   31.5600  -19.7755   34.9345 C   0  0  0  0  0  0  0  0  0  0  0  0
   35.1345  -15.2394   36.6170 C   0  0  0  0  0  0  0  0  0  0  0  0
   36.0243  -15.4053   37.8279 C   0  0  0  0  0  0  0  0  0  0  0  0
   37.3664  -14.7507   37.6804 C   0  0  0  0  0  0  0  0  0  0  0  0
   37.2605  -13.2847   37.3308 C   0  0  0  0  0  0  0  0  0  0  0  0
   36.0793  -12.9997   36.4310 C   0  0  0  0  0  0  0  0  0  0  0  0
   35.7718  -14.2629   35.6563 C   0  0  0  0  0  0  0  0  0  0  0  0
   31.9095  -22.9965   34.2873 C   0  0  0  0  0  0  0  0  0  0  0  0
   32.0411  -21.7342   33.7367 O   0  0  0  0  0  0  0  0  0  0  0  0
   36.5043  -19.2416   34.0614 N   0  0  0  0  0  0  0  0  0  0  0  0
   36.2221  -19.9158   33.3219 H   0  0  0  0  0  0  0  0  0  0  0  0
   37.9253  -19.1177   34.3398 C   0  0  0  0  0  0  0  0  0  0  0  0
   38.2949  -19.5083   35.7418 C   0  0  0  0  0  0  0  0  0  0  0  0
   39.8175  -19.6640   35.7481 C   0  0  0  0  0  0  0  0  0  0  0  0
   40.4026  -18.8817   34.6668 N   0  0  0  0  0  0  0  0  0  0  0  0
   41.7920  -18.5905   34.8884 C   0  0  0  0  0  0  0  0  0  0  0  0
   40.1934  -19.6085   33.4265 C   0  0  0  0  0  0  0  0  0  0  0  0
   38.7264  -20.0184   33.4075 C   0  0  0  0  0  0  0  0  0  0  0  0
   30.2270  -20.1400   35.0401 O   0  0  0  0  0  0  0  0  0  0  0  0
   29.7408  -20.8253   36.1819 C   0  0  0  0  0  0  0  0  0  0  0  0
   28.7082  -21.8374   35.7521 C   0  0  0  0  0  0  0  0  0  0  0  0
   28.3891  -22.8647   36.7712 C   0  0  0  0  0  0  0  0  0  0  0  0
   29.3022  -23.8095   37.1555 N   0  0  0  0  0  0  0  0  0  0  0  0
   29.8897  -23.8626   38.4291 C   0  0  0  0  0  0  0  0  0  0  0  0
   31.2395  -24.5345   38.0763 C   0  0  0  0  0  0  0  0  0  0  0  0
   30.7753  -25.5497   37.0264 C   0  0  0  0  0  0  0  0  0  0  0  0
   29.3559  -25.1084   36.6314 C   0  0  0  0  0  0  0  0  0  0  0  0
 17 18  1  0  0  0
 18  1  1  0  0  0
  1  2  2  0  0  0
  2  3  1  0  0  0
  3  4  2  0  0  0
  4 19  1  0  0  0
 19 21  1  0  0  0
 21 22  1  0  0  0
 22 23  1  0  0  0
 23 24  1  0  0  0
 24 25  1  0  0  0
 24 26  1  0  0  0
 26 27  1  0  0  0
  4  5  1  0  0  0
  5  6  2  0  0  0
  6  7  1  0  0  0
  7  8  2  0  0  0
  8  9  1  0  0  0
  9 10  2  0  0  0
 10 28  1  0  0  0
 28 29  1  0  0  0
 29 30  1  0  0  0
 30 31  1  0  0  0
 31 32  1  0  0  0
 32 33  1  0  0  0
 33 34  1  0  0  0
 34 35  1  0  0  0
 35 36  1  0  0  0
  6 11  1  0  0  0
 11 12  1  0  0  0
 12 13  1  0  0  0
 13 14  1  0  0  0
 14 15  1  0  0  0
 15 16  1  0  0  0
 10  1  1  0  0  0
 36 32  1  0  0  0
 16 11  1  0  0  0
  8  3  1  0  0  0
 27 21  1  0  0  0
 19 20  1  0  0  0
M  END
> <minimizedAffinity>
-6.81529

> <CNNscore>
0.6655895710

> <CNNaffinity>
6.5031442642

> <CNN_VS>
4.3284249306

> <CNNaffinity_variance>
0.1754828095

$$$$
[H]c1c(C2([H])C([H])([H])C([H])([H])C([H])([H])C([H])([H])C2([H])[H])nc2c([H])c(OC([H])([H])C([H])([H])C([H])([H])N3C([H])([H])C([H])([H])C([H])([H])C3([H])[H])c(OC([H])([H])[H])c([H])c2c1N([H])C1([H])C([H])([H])C([H])([H])N(C([H])([H])[H])C([H])([H])C1([H])[H]


 36 40  0  0  0  0  0  0  0  0999 V2000
   38.6315  -21.0938   37.3165 C   0  0  0  0  0  0  0  0  0  0  0  0
   37.3101  -20.7351   37.1336 C   0  0  0  0  0  0  0  0  0  0  0  0
   36.8963  -19.4436   36.8949 C   0  0  0  0  0  0  0  0  0  0  0  0
   35.5849  -19.0715   36.7151 C   0  0  0  0  0  0  0  0  0  0  0  0
   35.3033  -17.7293   36.4854 C   0  0  0  0  0  0  0  0  0  0  0  0
   36.3010  -16.7938   36.4369 C   0  0  0  0  0  0  0  0  0  0  0  0
   37.5706  -17.1835   36.6152 N   0  0  0  0  0  0  0  0  0  0  0  0
   37.8858  -18.4785   36.8414 C   0  0  0  0  0  0  0  0  0  0  0  0
   39.2177  -18.7751   37.0150 C   0  0  0  0  0  0  0  0  0  0  0  0
   39.5782  -20.0938   37.2531 C   0  0  0  0  0  0  0  0  0  0  0  0
   36.0283  -15.3547   36.1933 C   0  0  0  0  0  0  0  0  0  0  0  0
   34.5590  -15.0972   35.9481 C   0  0  0  0  0  0  0  0  0  0  0  0
   33.9158  -14.2428   37.0006 C   0  0  0  0  0  0  0  0  0  0  0  0
   34.6317  -12.9267   37.1954 C   0  0  0  0  0  0  0  0  0  0  0  0
   36.1269  -13.0619   37.0160 C   0  0  0  0  0  0  0  0  0  0  0  0
   36.5046  -14.4917   37.3383 C   0  0  0  0  0  0  0  0  0  0  0  0
   38.6621  -23.2738   38.5159 C   0  0  0  0  0  0  0  0  0  0  0  0
   39.0500  -22.3597   37.5527 O   0  0  0  0  0  0  0  0  0  0  0  0
   34.5506  -20.0327   36.7919 N   0  0  0  0  0  0  0  0  0  0  0  0
   34.6953  -20.8933   37.3571 H   0  0  0  0  0  0  0  0  0  0  0  0
   33.2697  -19.8864   36.1212 C   0  0  0  0  0  0  0  0  0  0  0  0
   33.3824  -19.8323   34.6248 C   0  0  0  0  0  0  0  0  0  0  0  0
   31.9644  -20.0409   34.0877 C   0  0  0  0  0  0  0  0  0  0  0  0
   30.9876  -19.6623   35.1005 N   0  0  0  0  0  0  0  0  0  0  0  0
   29.6969  -19.3738   34.5389 C   0  0  0  0  0  0  0  0  0  0  0  0
   30.9240  -20.7323   36.0811 C   0  0  0  0  0  0  0  0  0  0  0  0
   32.3635  -21.0665   36.4506 C   0  0  0  0  0  0  0  0  0  0  0  0
   40.9274  -20.3622   37.4223 O   0  0  0  0  0  0  0  0  0  0  0  0
   41.9134  -19.6719   36.6733 C   0  0  0  0  0  0  0  0  0  0  0  0
   42.7702  -20.6722   35.9380 C   0  0  0  0  0  0  0  0  0  0  0  0
   42.2602  -21.0571   34.6010 C   0  0  0  0  0  0  0  0  0  0  0  0
   41.2051  -20.4099   34.0162 N   0  0  0  0  0  0  0  0  0  0  0  0
   41.3381  -19.3157   33.1471 C   0  0  0  0  0  0  0  0  0  0  0  0
   39.9922  -18.5966   33.4101 C   0  0  0  0  0  0  0  0  0  0  0  0
   39.0561  -19.8031   33.5383 C   0  0  0  0  0  0  0  0  0  0  0  0
   39.9801  -21.0201   33.7130 C   0  0  0  0  0  0  0  0  0  0  0  0
 17 18  1  0  0  0
 18  1  1  0  0  0
  1  2  2  0  0  0
  2  3  1  0  0  0
  3  4  2  0  0  0
  4 19  1  0  0  0
 19 21  1  0  0  0
 21 22  1  0  0  0
 22 23  1  0  0  0
 23 24  1  0  0  0
 24 25  1  0  0  0
 24 26  1  0  0  0
 26 27  1  0  0  0
  4  5  1  0  0  0
  5  6  2  0  0  0
  6  7  1  0  0  0
  7  8  2  0  0  0
  8  9  1  0  0  0
  9 10  2  0  0  0
 10 28  1  0  0  0
 28 29  1  0  0  0
 29 30  1  0  0  0
 30 31  1  0  0  0
 31 32  1  0  0  0
 32 33  1  0  0  0
 33 34  1  0  0  0
 34 35  1  0  0  0
 35 36  1  0  0  0
  6 11  1  0  0  0
 11 12  1  0  0  0
 12 13  1  0  0  0
 13 14  1  0  0  0
 14 15  1  0  0  0
 15 16  1  0  0  0
 10  1  1  0  0  0
 36 32  1  0  0  0
 16 11  1  0  0  0
  8  3  1  0  0  0
 27 21  1  0  0  0
 19 20  1  0  0  0
M  END
> <minimizedAffinity>
-6.44208

> <CNNscore>
0.4371985197

> <CNNaffinity>
6.6016092300

> <CNN_VS>
2.8862137794

> <CNNaffinity_variance>
0.0846593678

$$$$
[H]c1c(C2([H])C([H])([H])C([H])([H])C([H])([H])C([H])([H])C2([H])[H])nc2c([H])c(OC([H])([H])C([H])([H])C([H])([H])N3C([H])([H])C([H])([H])C([H])([H])C3([H])[H])c(OC([H])([H])[H])c([H])c2c1N([H])C1([H])C([H])([H])C([H])([H])N(C([H])([H])[H])C([H])([H])C1([H])[H]


 36 40  0  0  0  0  0  0  0  0999 V2000
   36.2700  -15.5314   36.4196 C   0  0  0  0  0  0  0  0  0  0  0  0
   36.4093  -16.9057   36.4074 C   0  0  0  0  0  0  0  0  0  0  0  0
   35.3891  -17.7730   36.0862 C   0  0  0  0  0  0  0  0  0  0  0  0
   35.5121  -19.1424   36.0738 C   0  0  0  0  0  0  0  0  0  0  0  0
   34.3991  -19.9039   35.7346 C   0  0  0  0  0  0  0  0  0  0  0  0
   33.2057  -19.3133   35.4182 C   0  0  0  0  0  0  0  0  0  0  0  0
   33.1133  -17.9766   35.4379 N   0  0  0  0  0  0  0  0  0  0  0  0
   34.1718  -17.2011   35.7628 C   0  0  0  0  0  0  0  0  0  0  0  0
   33.9729  -15.8400   35.7570 C   0  0  0  0  0  0  0  0  0  0  0  0
   35.0364  -15.0127   36.0892 C   0  0  0  0  0  0  0  0  0  0  0  0
   32.0022  -20.1023   35.0525 C   0  0  0  0  0  0  0  0  0  0  0  0
   31.9498  -21.4190   35.7933 C   0  0  0  0  0  0  0  0  0  0  0  0
   30.7849  -21.5333   36.7322 C   0  0  0  0  0  0  0  0  0  0  0  0
   29.4615  -21.2891   36.0455 C   0  0  0  0  0  0  0  0  0  0  0  0
   29.5702  -20.2430   34.9592 C   0  0  0  0  0  0  0  0  0  0  0  0
   30.7276  -19.3322   35.3074 C   0  0  0  0  0  0  0  0  0  0  0  0
   37.5643  -14.0316   37.9254 C   0  0  0  0  0  0  0  0  0  0  0  0
   37.2653  -14.6692   36.7346 O   0  0  0  0  0  0  0  0  0  0  0  0
   36.7368  -19.7549   36.4267 N   0  0  0  0  0  0  0  0  0  0  0  0
   37.5038  -19.8016   35.7263 H   0  0  0  0  0  0  0  0  0  0  0  0
   36.9974  -20.3291   37.7360 C   0  0  0  0  0  0  0  0  0  0  0  0
   35.8538  -20.1692   38.6960 C   0  0  0  0  0  0  0  0  0  0  0  0
   36.1456  -21.1186   39.8606 C   0  0  0  0  0  0  0  0  0  0  0  0
   37.5756  -21.3885   39.9368 N   0  0  0  0  0  0  0  0  0  0  0  0
   37.9787  -21.8544   41.2348 C   0  0  0  0  0  0  0  0  0  0  0  0
   37.9056  -22.3432   38.8927 C   0  0  0  0  0  0  0  0  0  0  0  0
   37.2616  -21.8250   37.6133 C   0  0  0  0  0  0  0  0  0  0  0  0
   34.8062  -13.6461   36.0729 O   0  0  0  0  0  0  0  0  0  0  0  0
   33.5180  -13.1147   36.3332 C   0  0  0  0  0  0  0  0  0  0  0  0
   33.4686  -12.6024   37.7510 C   0  0  0  0  0  0  0  0  0  0  0  0
   32.7050  -11.3446   37.9267 C   0  0  0  0  0  0  0  0  0  0  0  0
   31.3397  -11.3360   38.0265 N   0  0  0  0  0  0  0  0  0  0  0  0
   30.4982  -10.5470   37.2268 C   0  0  0  0  0  0  0  0  0  0  0  0
   29.3015  -10.3641   38.1923 C   0  0  0  0  0  0  0  0  0  0  0  0
   29.2422  -11.7589   38.8243 C   0  0  0  0  0  0  0  0  0  0  0  0
   30.5771  -12.4297   38.4589 C   0  0  0  0  0  0  0  0  0  0  0  0
 17 18  1  0  0  0
 18  1  1  0  0  0
  1  2  2  0  0  0
  2  3  1  0  0  0
  3  4  2  0  0  0
  4 19  1  0  0  0
 19 21  1  0  0  0
 21 22  1  0  0  0
 22 23  1  0  0  0
 23 24  1  0  0  0
 24 25  1  0  0  0
 24 26  1  0  0  0
 26 27  1  0  0  0
  4  5  1  0  0  0
  5  6  2  0  0  0
  6  7  1  0  0  0
  7  8  2  0  0  0
  8  9  1  0  0  0
  9 10  2  0  0  0
 10 28  1  0  0  0
 28 29  1  0  0  0
 29 30  1  0  0  0
 30 31  1  0  0  0
 31 32  1  0  0  0
 32 33  1  0  0  0
 33 34  1  0  0  0
 34 35  1  0  0  0
 35 36  1  0  0  0
  6 11  1  0  0  0
 11 12  1  0  0  0
 12 13  1  0  0  0
 13 14  1  0  0  0
 14 15  1  0  0  0
 15 16  1  0  0  0
 10  1  1  0  0  0
 36 32  1  0  0  0
 16 11  1  0  0  0
  8  3  1  0  0  0
 27 21  1  0  0  0
 19 20  1  0  0  0
M  END
> <minimizedAffinity>
-7.35109

> <CNNscore>
0.4335821867

> <CNNaffinity>
6.5393424034

> <CNN_VS>
2.8353424072

> <CNNaffinity_variance>
0.3252636790

$$$$
[H]c1c(C2([H])C([H])([H])C([H])([H])C([H])([H])C([H])([H])C2([H])[H])nc2c([H])c(OC([H])([H])C([H])([H])C([H])([H])N3C([H])([H])C([H])([H])C([H])([H])C3([H])[H])c(OC([H])([H])[H])c([H])c2c1N([H])C1([H])C([H])([H])C([H])([H])N(C([H])([H])[H])C([H])([H])C1([H])[H]


 36 40  0  0  0  0  0  0  0  0999 V2000
   37.2943  -22.0265   37.0591 C   0  0  0  0  0  0  0  0  0  0  0  0
   38.0501  -20.9019   36.7901 C   0  0  0  0  0  0  0  0  0  0  0  0
   37.5705  -19.6160   36.9011 C   0  0  0  0  0  0  0  0  0  0  0  0
   38.3096  -18.4881   36.6328 C   0  0  0  0  0  0  0  0  0  0  0  0
   37.7006  -17.2468   36.7814 C   0  0  0  0  0  0  0  0  0  0  0  0
   36.3974  -17.1403   37.1853 C   0  0  0  0  0  0  0  0  0  0  0  0
   35.6998  -18.2556   37.4404 N   0  0  0  0  0  0  0  0  0  0  0  0
   36.2552  -19.4809   37.3076 C   0  0  0  0  0  0  0  0  0  0  0  0
   35.4541  -20.5628   37.5902 C   0  0  0  0  0  0  0  0  0  0  0  0
   35.9895  -21.8365   37.4611 C   0  0  0  0  0  0  0  0  0  0  0  0
   35.7230  -15.8281   37.3519 C   0  0  0  0  0  0  0  0  0  0  0  0
   36.6527  -14.7917   37.9408 C   0  0  0  0  0  0  0  0  0  0  0  0
   36.9431  -13.6493   37.0122 C   0  0  0  0  0  0  0  0  0  0  0  0
   35.6866  -12.9735   36.5149 C   0  0  0  0  0  0  0  0  0  0  0  0
   34.5545  -13.9559   36.3159 C   0  0  0  0  0  0  0  0  0  0  0  0
   35.1629  -15.3151   36.0458 C   0  0  0  0  0  0  0  0  0  0  0  0
   38.2521  -23.9866   35.8623 C   0  0  0  0  0  0  0  0  0  0  0  0
   37.7547  -23.2954   36.9525 O   0  0  0  0  0  0  0  0  0  0  0  0
   39.6479  -18.5973   36.1894 N   0  0  0  0  0  0  0  0  0  0  0  0
   40.3499  -17.9010   36.5109 H   0  0  0  0  0  0  0  0  0  0  0  0
   40.1137  -19.6473   35.2991 C   0  0  0  0  0  0  0  0  0  0  0  0
   40.1741  -19.2255   33.8593 C   0  0  0  0  0  0  0  0  0  0  0  0
   41.0036  -20.2933   33.1420 C   0  0  0  0  0  0  0  0  0  0  0  0
   40.9583  -21.5439   33.8886 N   0  0  0  0  0  0  0  0  0  0  0  0
   41.2880  -22.6818   33.0756 C   0  0  0  0  0  0  0  0  0  0  0  0
   41.8507  -21.4160   35.0277 C   0  0  0  0  0  0  0  0  0  0  0  0
   41.5210  -20.0835   35.6882 C   0  0  0  0  0  0  0  0  0  0  0  0
   35.1590  -22.9066   37.7544 O   0  0  0  0  0  0  0  0  0  0  0  0
   34.3879  -23.5364   36.7451 C   0  0  0  0  0  0  0  0  0  0  0  0
   33.0030  -22.9387   36.7319 C   0  0  0  0  0  0  0  0  0  0  0  0
   32.6063  -22.3287   35.4410 C   0  0  0  0  0  0  0  0  0  0  0  0
   32.6941  -20.9802   35.2217 N   0  0  0  0  0  0  0  0  0  0  0  0
   33.0563  -20.4056   33.9934 C   0  0  0  0  0  0  0  0  0  0  0  0
   33.6874  -19.0817   34.4900 C   0  0  0  0  0  0  0  0  0  0  0  0
   32.7325  -18.7351   35.6374 C   0  0  0  0  0  0  0  0  0  0  0  0
   31.9350  -20.0221   35.9077 C   0  0  0  0  0  0  0  0  0  0  0  0
 17 18  1  0  0  0
 18  1  1  0  0  0
  1  2  2  0  0  0
  2  3  1  0  0  0
  3  4  2  0  0  0
  4 19  1  0  0  0
 19 21  1  0  0  0
 21 22  1  0  0  0
 22 23  1  0  0  0
 23 24  1  0  0  0
 24 25  1  0  0  0
 24 26  1  0  0  0
 26 27  1  0  0  0
  4  5  1  0  0  0
  5  6  2  0  0  0
  6  7  1  0  0  0
  7  8  2  0  0  0
  8  9  1  0  0  0
  9 10  2  0  0  0
 10 28  1  0  0  0
 28 29  1  0  0  0
 29 30  1  0  0  0
 30 31  1  0  0  0
 31 32  1  0  0  0
 32 33  1  0  0  0
 33 34  1  0  0  0
 34 35  1  0  0  0
 35 36  1  0  0  0
  6 11  1  0  0  0
 11 12  1  0  0  0
 12 13  1  0  0  0
 13 14  1  0  0  0
 14 15  1  0  0  0
 15 16  1  0  0  0
 10  1  1  0  0  0
 36 32  1  0  0  0
 16 11  1  0  0  0
  8  3  1  0  0  0
 27 21  1  0  0  0
 19 20  1  0  0  0
M  END
> <minimizedAffinity>
-6.35462

> <CNNscore>
0.3377139270

> <CNNaffinity>
6.2784128189

> <CNN_VS>
2.1203074455

> <CNNaffinity_variance>
0.2194872797

$$$$
[H]c1c(C2([H])C([H])([H])C([H])([H])C([H])([H])C([H])([H])C2([H])[H])nc2c([H])c(OC([H])([H])C([H])([H])C([H])([H])N3C([H])([H])C([H])([H])C([H])([H])C3([H])[H])c(OC([H])([H])[H])c([H])c2c1N([H])C1([H])C([H])([H])C([H])([H])N(C([H])([H])[H])C([H])([H])C1([H])[H]


 36 40  0  0  0  0  0  0  0  0999 V2000
   36.4403  -21.7678   37.4116 C   0  0  0  0  0  0  0  0  0  0  0  0
   37.4661  -20.8672   37.1997 C   0  0  0  0  0  0  0  0  0  0  0  0
   37.2666  -19.5253   36.9641 C   0  0  0  0  0  0  0  0  0  0  0  0
   38.2772  -18.6186   36.7476 C   0  0  0  0  0  0  0  0  0  0  0  0
   37.9365  -17.2902   36.5169 C   0  0  0  0  0  0  0  0  0  0  0  0
   36.6292  -16.8855   36.5045 C   0  0  0  0  0  0  0  0  0  0  0  0
   35.6638  -17.7898   36.7187 N   0  0  0  0  0  0  0  0  0  0  0  0
   35.9535  -19.0905   36.9461 C   0  0  0  0  0  0  0  0  0  0  0  0
   34.8909  -19.9396   37.1510 C   0  0  0  0  0  0  0  0  0  0  0  0
   35.1503  -21.2828   37.3838 C   0  0  0  0  0  0  0  0  0  0  0  0
   36.2378  -15.4742   36.2609 C   0  0  0  0  0  0  0  0  0  0  0  0
   34.8402  -15.3708   35.6939 C   0  0  0  0  0  0  0  0  0  0  0  0
   33.8746  -14.6680   36.6023 C   0  0  0  0  0  0  0  0  0  0  0  0
   34.3560  -13.2945   37.0079 C   0  0  0  0  0  0  0  0  0  0  0  0
   35.8581  -13.2453   37.1729 C   0  0  0  0  0  0  0  0  0  0  0  0
   36.3322  -14.6407   37.5175 C   0  0  0  0  0  0  0  0  0  0  0  0
   37.2441  -24.0618   36.8793 C   0  0  0  0  0  0  0  0  0  0  0  0
   36.6243  -23.0891   37.6432 O   0  0  0  0  0  0  0  0  0  0  0  0
   39.6269  -19.0401   36.7332 N   0  0  0  0  0  0  0  0  0  0  0  0
   40.2481  -18.7884   37.5281 H   0  0  0  0  0  0  0  0  0  0  0  0
   40.2098  -19.8244   35.6575 C   0  0  0  0  0  0  0  0  0  0  0  0
   40.1734  -19.1310   34.3261 C   0  0  0  0  0  0  0  0  0  0  0  0
   41.1234  -19.9145   33.4170 C   0  0  0  0  0  0  0  0  0  0  0  0
   41.2710  -21.2784   33.9083 N   0  0  0  0  0  0  0  0  0  0  0  0
   41.7334  -22.1820   32.8914 C   0  0  0  0  0  0  0  0  0  0  0  0
   42.1669  -21.2463   35.0515 C   0  0  0  0  0  0  0  0  0  0  0  0
   41.6737  -20.1245   35.9563 C   0  0  0  0  0  0  0  0  0  0  0  0
   34.0598  -22.1134   37.5884 O   0  0  0  0  0  0  0  0  0  0  0  0
   33.3283  -22.0802   38.8024 C   0  0  0  0  0  0  0  0  0  0  0  0
   34.0809  -21.2521   39.8138 C   0  0  0  0  0  0  0  0  0  0  0  0
   33.7149  -21.5185   41.2249 C   0  0  0  0  0  0  0  0  0  0  0  0
   33.5060  -20.5049   42.1210 N   0  0  0  0  0  0  0  0  0  0  0  0
   32.4141  -20.4466   43.0010 C   0  0  0  0  0  0  0  0  0  0  0  0
   32.2833  -18.9127   43.1680 C   0  0  0  0  0  0  0  0  0  0  0  0
   33.7623  -18.5133   43.2084 C   0  0  0  0  0  0  0  0  0  0  0  0
   34.5315  -19.7437   42.6985 C   0  0  0  0  0  0  0  0  0  0  0  0
 17 18  1  0  0  0
 18  1  1  0  0  0
  1  2  2  0  0  0
  2  3  1  0  0  0
  3  4  2  0  0  0
  4 19  1  0  0  0
 19 21  1  0  0  0
 21 22  1  0  0  0
 22 23  1  0  0  0
 23 24  1  0  0  0
 24 25  1  0  0  0
 24 26  1  0  0  0
 26 27  1  0  0  0
  4  5  1  0  0  0
  5  6  2  0  0  0
  6  7  1  0  0  0
  7  8  2  0  0  0
  8  9  1  0  0  0
  9 10  2  0  0  0
 10 28  1  0  0  0
 28 29  1  0  0  0
 29 30  1  0  0  0
 30 31  1  0  0  0
 31 32  1  0  0  0
 32 33  1  0  0  0
 33 34  1  0  0  0
 34 35  1  0  0  0
 35 36  1  0  0  0
  6 11  1  0  0  0
 11 12  1  0  0  0
 12 13  1  0  0  0
 13 14  1  0  0  0
 14 15  1  0  0  0
 15 16  1  0  0  0
 10  1  1  0  0  0
 36 32  1  0  0  0
 16 11  1  0  0  0
  8  3  1  0  0  0
 27 21  1  0  0  0
 19 20  1  0  0  0
M  END
> <minimizedAffinity>
-5.82999

> <CNNscore>
0.3356896043

> <CNNaffinity>
6.0058307648

> <CNN_VS>
2.0160949230

> <CNNaffinity_variance>
0.1533664465

$$$$
[H]c1c(C2([H])C([H])([H])C([H])([H])C([H])([H])C([H])([H])C2([H])[H])nc2c([H])c(OC([H])([H])C([H])([H])C([H])([H])N3C([H])([H])C([H])([H])C([H])([H])C3([H])[H])c(OC([H])([H])[H])c([H])c2c1N([H])C1([H])C([H])([H])C([H])([H])N(C([H])([H])[H])C([H])([H])C1([H])[H]


 36 40  0  0  0  0  0  0  0  0999 V2000
   35.9032  -21.9100   37.6329 C   0  0  0  0  0  0  0  0  0  0  0  0
   37.0057  -21.1471   37.3002 C   0  0  0  0  0  0  0  0  0  0  0  0
   36.9513  -19.7926   37.0583 C   0  0  0  0  0  0  0  0  0  0  0  0
   38.0391  -19.0218   36.7224 C   0  0  0  0  0  0  0  0  0  0  0  0
   37.8442  -17.6630   36.5000 C   0  0  0  0  0  0  0  0  0  0  0  0
   36.6030  -17.0973   36.6112 C   0  0  0  0  0  0  0  0  0  0  0  0
   35.5599  -17.8714   36.9402 N   0  0  0  0  0  0  0  0  0  0  0  0
   35.7076  -19.1963   37.1640 C   0  0  0  0  0  0  0  0  0  0  0  0
   34.5744  -19.9036   37.4925 C   0  0  0  0  0  0  0  0  0  0  0  0
   34.6875  -21.2669   37.7255 C   0  0  0  0  0  0  0  0  0  0  0  0
   36.3670  -15.6499   36.3793 C   0  0  0  0  0  0  0  0  0  0  0  0
   34.9585  -15.3821   35.8999 C   0  0  0  0  0  0  0  0  0  0  0  0
   34.1424  -14.5678   36.8603 C   0  0  0  0  0  0  0  0  0  0  0  0
   34.8078  -13.2606   37.2222 C   0  0  0  0  0  0  0  0  0  0  0  0
   36.3127  -13.3900   37.2924 C   0  0  0  0  0  0  0  0  0  0  0  0
   36.6388  -14.8312   37.6198 C   0  0  0  0  0  0  0  0  0  0  0  0
   36.4596  -24.2794   37.1155 C   0  0  0  0  0  0  0  0  0  0  0  0
   35.9444  -23.2421   37.8719 O   0  0  0  0  0  0  0  0  0  0  0  0
   39.3174  -19.6097   36.5806 N   0  0  0  0  0  0  0  0  0  0  0  0
   39.3921  -20.6338   36.4172 H   0  0  0  0  0  0  0  0  0  0  0  0
   40.5578  -18.8551   36.6441 C   0  0  0  0  0  0  0  0  0  0  0  0
   41.4653  -19.2915   37.7580 C   0  0  0  0  0  0  0  0  0  0  0  0
   42.8295  -18.6650   37.4598 C   0  0  0  0  0  0  0  0  0  0  0  0
   42.6637  -17.4899   36.6143 N   0  0  0  0  0  0  0  0  0  0  0  0
   43.7883  -16.5983   36.6852 C   0  0  0  0  0  0  0  0  0  0  0  0
   42.4210  -17.9475   35.2570 C   0  0  0  0  0  0  0  0  0  0  0  0
   41.3428  -19.0197   35.3483 C   0  0  0  0  0  0  0  0  0  0  0  0
   33.5290  -21.9523   38.0561 O   0  0  0  0  0  0  0  0  0  0  0  0
   32.3313  -21.7687   37.3203 C   0  0  0  0  0  0  0  0  0  0  0  0
   32.4317  -22.5143   36.0129 C   0  0  0  0  0  0  0  0  0  0  0  0
   31.9137  -21.7736   34.8385 C   0  0  0  0  0  0  0  0  0  0  0  0
   32.3416  -20.5091   34.5355 N   0  0  0  0  0  0  0  0  0  0  0  0
   33.2681  -20.2143   33.5232 C   0  0  0  0  0  0  0  0  0  0  0  0
   33.8922  -18.9185   34.0970 C   0  0  0  0  0  0  0  0  0  0  0  0
   32.6456  -18.2509   34.6875 C   0  0  0  0  0  0  0  0  0  0  0  0
   31.5733  -19.3527   34.7291 C   0  0  0  0  0  0  0  0  0  0  0  0
 17 18  1  0  0  0
 18  1  1  0  0  0
  1  2  2  0  0  0
  2  3  1  0  0  0
  3  4  2  0  0  0
  4 19  1  0  0  0
 19 21  1  0  0  0
 21 22  1  0  0  0
 22 23  1  0  0  0
 23 24  1  0  0  0
 24 25  1  0  0  0
 24 26  1  0  0  0
 26 27  1  0  0  0
  4  5  1  0  0  0
  5  6  2  0  0  0
  6  7  1  0  0  0
  7  8  2  0  0  0
  8  9  1  0  0  0
  9 10  2  0  0  0
 10 28  1  0  0  0
 28 29  1  0  0  0
 29 30  1  0  0  0
 30 31  1  0  0  0
 31 32  1  0  0  0
 32 33  1  0  0  0
 33 34  1  0  0  0
 34 35  1  0  0  0
 35 36  1  0  0  0
  6 11  1  0  0  0
 11 12  1  0  0  0
 12 13  1  0  0  0
 13 14  1  0  0  0
 14 15  1  0  0  0
 15 16  1  0  0  0
 10  1  1  0  0  0
 36 32  1  0  0  0
 16 11  1  0  0  0
  8  3  1  0  0  0
 27 21  1  0  0  0
 19 20  1  0  0  0
M  END
> <minimizedAffinity>
-6.84861

> <CNNscore>
0.3240396082

> <CNNaffinity>
6.3469934464

> <CNN_VS>
2.0566773415

> <CNNaffinity_variance>
0.2919217944

$$$$
[H]c1c(-c2nc3c([H])c(OC([H])([H])C([H])([H])C([H])([H])N4C([H])([H])C([H])([H])C([H])([H])C4([H])[H])c(OC([H])([H])[H])c([H])c3c(N([H])C([H])([H])C3([H])C4([H])C([H])([H])N(C([H])([H])[H])C([H])([H])C3([H])C([H])([H])C4([H])[H])c2[H])oc(C([H])([H])C([H])([H])[H])c1[H]


 40 45  0  0  0  0  0  0  0  0999 V2000
   33.7311  -18.0454   35.4228 C   0  0  0  0  0  0  0  0  0  0  0  0
   35.0907  -18.3103   35.3113 C   0  0  0  0  0  0  0  0  0  0  0  0
   36.0500  -17.3626   35.5960 C   0  0  0  0  0  0  0  0  0  0  0  0
   35.6199  -16.1204   36.0022 C   0  0  0  0  0  0  0  0  0  0  0  0
   36.5000  -15.1015   36.3107 C   0  0  0  0  0  0  0  0  0  0  0  0
   36.0747  -13.8546   36.7176 C   0  0  0  0  0  0  0  0  0  0  0  0
   34.7161  -13.5784   36.8326 C   0  0  0  0  0  0  0  0  0  0  0  0
   33.8375  -14.5825   36.5289 C   0  0  0  0  0  0  0  0  0  0  0  0
   34.2624  -15.8307   36.1216 C   0  0  0  0  0  0  0  0  0  0  0  0
   33.3798  -16.8137   35.8242 N   0  0  0  0  0  0  0  0  0  0  0  0
   30.8370  -20.1088   35.1645 C   0  0  0  0  0  0  0  0  0  0  0  0
   31.6698  -20.8295   34.3286 C   0  0  0  0  0  0  0  0  0  0  0  0
   32.8729  -20.1593   34.3061 C   0  0  0  0  0  0  0  0  0  0  0  0
   32.7343  -19.0657   35.1193 C   0  0  0  0  0  0  0  0  0  0  0  0
   31.5191  -19.0787   35.6019 O   0  0  0  0  0  0  0  0  0  0  0  0
   29.2989  -21.8981   35.6896 C   0  0  0  0  0  0  0  0  0  0  0  0
   29.4378  -20.4019   35.5273 C   0  0  0  0  0  0  0  0  0  0  0  0
   37.4395  -17.6801   35.4702 N   0  0  0  0  0  0  0  0  0  0  0  0
   38.1357  -17.4006   36.1794 H   0  0  0  0  0  0  0  0  0  0  0  0
   37.9356  -18.4189   34.3231 C   0  0  0  0  0  0  0  0  0  0  0  0
   38.3013  -19.7968   34.7368 C   0  0  0  0  0  0  0  0  0  0  0  0
   39.1872  -19.8962   35.9426 C   0  0  0  0  0  0  0  0  0  0  0  0
   39.4827  -21.4009   35.9481 C   0  0  0  0  0  0  0  0  0  0  0  0
   39.3775  -21.8462   34.5026 C   0  0  0  0  0  0  0  0  0  0  0  0
   39.1133  -20.5553   33.7132 C   0  0  0  0  0  0  0  0  0  0  0  0
   40.4437  -19.9410   33.4327 C   0  0  0  0  0  0  0  0  0  0  0  0
   41.2022  -19.5571   34.5600 N   0  0  0  0  0  0  0  0  0  0  0  0
   42.4135  -20.2885   34.7781 C   0  0  0  0  0  0  0  0  0  0  0  0
   40.4827  -19.1915   35.7242 C   0  0  0  0  0  0  0  0  0  0  0  0
   36.9946  -12.8550   37.0190 O   0  0  0  0  0  0  0  0  0  0  0  0
   38.2766  -13.2049   37.4795 C   0  0  0  0  0  0  0  0  0  0  0  0
   34.3579  -12.3230   37.2408 O   0  0  0  0  0  0  0  0  0  0  0  0
   33.4081  -11.9693   38.1951 C   0  0  0  0  0  0  0  0  0  0  0  0
   32.2978  -11.1905   37.4777 C   0  0  0  0  0  0  0  0  0  0  0  0
   31.0289  -12.0191   37.5418 C   0  0  0  0  0  0  0  0  0  0  0  0
   30.0452  -11.4985   38.4337 N   0  0  0  0  0  0  0  0  0  0  0  0
   28.9249  -10.8628   37.8171 C   0  0  0  0  0  0  0  0  0  0  0  0
   27.7075  -11.7094   38.1130 C   0  0  0  0  0  0  0  0  0  0  0  0
   28.1671  -12.7934   39.0661 C   0  0  0  0  0  0  0  0  0  0  0  0
   29.5641  -12.3964   39.4326 C   0  0  0  0  0  0  0  0  0  0  0  0
 16 17  1  0  0  0
 17 11  1  0  0  0
 11 12  2  0  0  0
 12 13  1  0  0  0
 13 14  2  0  0  0
 14 15  1  0  0  0
 14  1  1  0  0  0
  1  2  2  0  0  0
  2  3  1  0  0  0
  3 18  1  0  0  0
 18 20  1  0  0  0
 20 21  1  0  0  0
 21 22  1  0  0  0
 22 23  1  0  0  0
 23 24  1  0  0  0
 24 25  1  0  0  0
 25 26  1  0  0  0
 26 27  1  0  0  0
 27 28  1  0  0  0
 27 29  1  0  0  0
  3  4  2  0  0  0
  4  5  1  0  0  0
  5  6  2  0  0  0
  6 30  1  0  0  0
 30 31  1  0  0  0
  6  7  1  0  0  0
  7 32  1  0  0  0
 32 33  1  0  0  0
 33 34  1  0  0  0
 34 35  1  0  0  0
 35 36  1  0  0  0
 36 37  1  0  0  0
 37 38  1  0  0  0
 38 39  1  0  0  0
 39 40  1  0  0  0
  7  8  2  0  0  0
  8  9  1  0  0  0
  9 10  2  0  0  0
 15 11  1  0  0  0
 10  1  1  0  0  0
 25 21  1  0  0  0
  9  4  1  0  0  0
 29 22  1  0  0  0
 40 36  1  0  0  0
 18 19  1  0  0  0
M  END
> <minimizedAffinity>
-8.52549

> <CNNscore>
0.7792211771

> <CNNaffinity>
7.6745042801

> <CNN_VS>
5.9801363945

> <CNNaffinity_variance>
0.0418736003

$$$$
[H]c1c(-c2nc3c([H])c(OC([H])([H])C([H])([H])C([H])([H])N4C([H])([H])C([H])([H])C([H])([H])C4([H])[H])c(OC([H])([H])[H])c([H])c3c(N([H])C([H])([H])C3([H])C4([H])C([H])([H])N(C([H])([H])[H])C([H])([H])C3([H])C([H])([H])C4([H])[H])c2[H])oc(C([H])([H])C([H])([H])[H])c1[H]


 40 45  0  0  0  0  0  0  0  0999 V2000
   33.7888  -18.0322   35.3620 C   0  0  0  0  0  0  0  0  0  0  0  0
   35.1477  -18.3209   35.3297 C   0  0  0  0  0  0  0  0  0  0  0  0
   36.1066  -17.3812   35.6412 C   0  0  0  0  0  0  0  0  0  0  0  0
   35.6768  -16.1225   35.9928 C   0  0  0  0  0  0  0  0  0  0  0  0
   36.5565  -15.1097   36.3221 C   0  0  0  0  0  0  0  0  0  0  0  0
   36.1314  -13.8463   36.6745 C   0  0  0  0  0  0  0  0  0  0  0  0
   34.7735  -13.5460   36.7101 C   0  0  0  0  0  0  0  0  0  0  0  0
   33.8953  -14.5438   36.3853 C   0  0  0  0  0  0  0  0  0  0  0  0
   34.3199  -15.8087   36.0325 C   0  0  0  0  0  0  0  0  0  0  0  0
   33.4378  -16.7852   35.7132 N   0  0  0  0  0  0  0  0  0  0  0  0
   30.9238  -20.1362   35.1088 C   0  0  0  0  0  0  0  0  0  0  0  0
   31.7071  -20.7511   34.1496 C   0  0  0  0  0  0  0  0  0  0  0  0
   32.8922  -20.0506   34.1075 C   0  0  0  0  0  0  0  0  0  0  0  0
   32.7924  -19.0443   35.0316 C   0  0  0  0  0  0  0  0  0  0  0  0
   31.6161  -19.1355   35.5954 O   0  0  0  0  0  0  0  0  0  0  0  0
   29.6760  -21.4637   36.6974 C   0  0  0  0  0  0  0  0  0  0  0  0
   29.5608  -20.4995   35.5393 C   0  0  0  0  0  0  0  0  0  0  0  0
   37.4953  -17.7235   35.5975 N   0  0  0  0  0  0  0  0  0  0  0  0
   38.2350  -17.0134   35.4779 H   0  0  0  0  0  0  0  0  0  0  0  0
   37.9282  -19.1037   35.7209 C   0  0  0  0  0  0  0  0  0  0  0  0
   38.9754  -19.2068   36.7679 C   0  0  0  0  0  0  0  0  0  0  0  0
   40.3686  -18.8749   36.3237 C   0  0  0  0  0  0  0  0  0  0  0  0
   41.1605  -19.2586   37.5796 C   0  0  0  0  0  0  0  0  0  0  0  0
   40.3503  -20.3437   38.2615 C   0  0  0  0  0  0  0  0  0  0  0  0
   39.1670  -20.6014   37.3164 C   0  0  0  0  0  0  0  0  0  0  0  0
   39.6354  -21.5845   36.2966 C   0  0  0  0  0  0  0  0  0  0  0  0
   40.7041  -21.1667   35.4739 N   0  0  0  0  0  0  0  0  0  0  0  0
   41.9375  -21.8738   35.6425 C   0  0  0  0  0  0  0  0  0  0  0  0
   40.8176  -19.7768   35.2248 C   0  0  0  0  0  0  0  0  0  0  0  0
   37.0509  -12.8536   36.9993 O   0  0  0  0  0  0  0  0  0  0  0  0
   38.2533  -13.2017   37.6403 C   0  0  0  0  0  0  0  0  0  0  0  0
   34.4155  -12.2750   37.0672 O   0  0  0  0  0  0  0  0  0  0  0  0
   33.5451  -11.8811   38.0796 C   0  0  0  0  0  0  0  0  0  0  0  0
   32.1763  -11.6184   37.4380 C   0  0  0  0  0  0  0  0  0  0  0  0
   31.1382  -12.4101   38.2102 C   0  0  0  0  0  0  0  0  0  0  0  0
   29.7941  -12.0223   37.9325 N   0  0  0  0  0  0  0  0  0  0  0  0
   28.8173  -12.4510   38.8819 C   0  0  0  0  0  0  0  0  0  0  0  0
   28.2749  -11.2132   39.5603 C   0  0  0  0  0  0  0  0  0  0  0  0
   28.8889  -10.0313   38.8384 C   0  0  0  0  0  0  0  0  0  0  0  0
   29.5830  -10.6382   37.6581 C   0  0  0  0  0  0  0  0  0  0  0  0
 16 17  1  0  0  0
 17 11  1  0  0  0
 11 12  2  0  0  0
 12 13  1  0  0  0
 13 14  2  0  0  0
 14 15  1  0  0  0
 14  1  1  0  0  0
  1  2  2  0  0  0
  2  3  1  0  0  0
  3 18  1  0  0  0
 18 20  1  0  0  0
 20 21  1  0  0  0
 21 22  1  0  0  0
 22 23  1  0  0  0
 23 24  1  0  0  0
 24 25  1  0  0  0
 25 26  1  0  0  0
 26 27  1  0  0  0
 27 28  1  0  0  0
 27 29  1  0  0  0
  3  4  2  0  0  0
  4  5  1  0  0  0
  5  6  2  0  0  0
  6 30  1  0  0  0
 30 31  1  0  0  0
  6  7  1  0  0  0
  7 32  1  0  0  0
 32 33  1  0  0  0
 33 34  1  0  0  0
 34 35  1  0  0  0
 35 36  1  0  0  0
 36 37  1  0  0  0
 37 38  1  0  0  0
 38 39  1  0  0  0
 39 40  1  0  0  0
  7  8  2  0  0  0
  8  9  1  0  0  0
  9 10  2  0  0  0
 15 11  1  0  0  0
 10  1  1  0  0  0
 25 21  1  0  0  0
  9  4  1  0  0  0
 29 22  1  0  0  0
 40 36  1  0  0  0
 18 19  1  0  0  0
M  END
> <minimizedAffinity>
-8.54879

> <CNNscore>
0.7134283781

> <CNNaffinity>
7.5312972069

> <CNN_VS>
5.3730411530

> <CNNaffinity_variance>
0.0456731170

$$$$
[H]c1c(-c2nc3c([H])c(OC([H])([H])C([H])([H])C([H])([H])N4C([H])([H])C([H])([H])C([H])([H])C4([H])[H])c(OC([H])([H])[H])c([H])c3c(N([H])C([H])([H])C3([H])C4([H])C([H])([H])N(C([H])([H])[H])C([H])([H])C3([H])C([H])([H])C4([H])[H])c2[H])oc(C([H])([H])C([H])([H])[H])c1[H]


 40 45  0  0  0  0  0  0  0  0999 V2000
   33.7637  -18.1133   35.3836 C   0  0  0  0  0  0  0  0  0  0  0  0
   35.1276  -18.3638   35.2936 C   0  0  0  0  0  0  0  0  0  0  0  0
   36.0721  -17.3986   35.5690 C   0  0  0  0  0  0  0  0  0  0  0  0
   35.6224  -16.1535   35.9435 C   0  0  0  0  0  0  0  0  0  0  0  0
   36.4865  -15.1175   36.2402 C   0  0  0  0  0  0  0  0  0  0  0  0
   36.0415  -13.8675   36.6153 C   0  0  0  0  0  0  0  0  0  0  0  0
   34.6784  -13.6055   36.7085 C   0  0  0  0  0  0  0  0  0  0  0  0
   33.8156  -14.6265   36.4163 C   0  0  0  0  0  0  0  0  0  0  0  0
   34.2602  -15.8779   36.0408 C   0  0  0  0  0  0  0  0  0  0  0  0
   33.3930  -16.8777   35.7543 N   0  0  0  0  0  0  0  0  0  0  0  0
   30.9040  -20.2270   35.1513 C   0  0  0  0  0  0  0  0  0  0  0  0
   31.7444  -20.9373   34.3141 C   0  0  0  0  0  0  0  0  0  0  0  0
   32.9357  -20.2468   34.2816 C   0  0  0  0  0  0  0  0  0  0  0  0
   32.7829  -19.1519   35.0905 C   0  0  0  0  0  0  0  0  0  0  0  0
   31.5708  -19.1834   35.5800 O   0  0  0  0  0  0  0  0  0  0  0  0
   29.3800  -22.0451   35.6147 C   0  0  0  0  0  0  0  0  0  0  0  0
   29.5121  -20.5423   35.5233 C   0  0  0  0  0  0  0  0  0  0  0  0
   37.4667  -17.7018   35.4662 N   0  0  0  0  0  0  0  0  0  0  0  0
   38.1965  -17.0764   35.8432 H   0  0  0  0  0  0  0  0  0  0  0  0
   37.9203  -18.9189   34.8177 C   0  0  0  0  0  0  0  0  0  0  0  0
   39.3072  -19.2268   35.2479 C   0  0  0  0  0  0  0  0  0  0  0  0
   39.8134  -20.5877   34.8731 C   0  0  0  0  0  0  0  0  0  0  0  0
   41.1538  -20.6014   35.6178 C   0  0  0  0  0  0  0  0  0  0  0  0
   40.9727  -19.6799   36.8081 C   0  0  0  0  0  0  0  0  0  0  0  0
   39.5009  -19.2445   36.7461 C   0  0  0  0  0  0  0  0  0  0  0  0
   38.7084  -20.3025   37.4378 C   0  0  0  0  0  0  0  0  0  0  0  0
   38.7554  -21.5913   36.8631 N   0  0  0  0  0  0  0  0  0  0  0  0
   39.3992  -22.6026   37.6457 C   0  0  0  0  0  0  0  0  0  0  0  0
   38.9676  -21.6636   35.4644 C   0  0  0  0  0  0  0  0  0  0  0  0
   36.9458  -12.8505   36.9058 O   0  0  0  0  0  0  0  0  0  0  0  0
   38.1997  -13.1706   37.4565 C   0  0  0  0  0  0  0  0  0  0  0  0
   34.3005  -12.3461   37.0855 O   0  0  0  0  0  0  0  0  0  0  0  0
   33.4730  -11.9791   38.1431 C   0  0  0  0  0  0  0  0  0  0  0  0
   32.1224  -11.5567   37.5500 C   0  0  0  0  0  0  0  0  0  0  0  0
   31.0416  -12.3971   38.2029 C   0  0  0  0  0  0  0  0  0  0  0  0
   29.7162  -11.9556   37.9156 N   0  0  0  0  0  0  0  0  0  0  0  0
   28.7110  -12.3710   38.8410 C   0  0  0  0  0  0  0  0  0  0  0  0
   28.2025  -11.1306   39.5406 C   0  0  0  0  0  0  0  0  0  0  0  0
   28.8682   -9.9550   38.8553 C   0  0  0  0  0  0  0  0  0  0  0  0
   29.5580  -10.5589   37.6708 C   0  0  0  0  0  0  0  0  0  0  0  0
 16 17  1  0  0  0
 17 11  1  0  0  0
 11 12  2  0  0  0
 12 13  1  0  0  0
 13 14  2  0  0  0
 14 15  1  0  0  0
 14  1  1  0  0  0
  1  2  2  0  0  0
  2  3  1  0  0  0
  3 18  1  0  0  0
 18 20  1  0  0  0
 20 21  1  0  0  0
 21 22  1  0  0  0
 22 23  1  0  0  0
 23 24  1  0  0  0
 24 25  1  0  0  0
 25 26  1  0  0  0
 26 27  1  0  0  0
 27 28  1  0  0  0
 27 29  1  0  0  0
  3  4  2  0  0  0
  4  5  1  0  0  0
  5  6  2  0  0  0
  6 30  1  0  0  0
 30 31  1  0  0  0
  6  7  1  0  0  0
  7 32  1  0  0  0
 32 33  1  0  0  0
 33 34  1  0  0  0
 34 35  1  0  0  0
 35 36  1  0  0  0
 36 37  1  0  0  0
 37 38  1  0  0  0
 38 39  1  0  0  0
 39 40  1  0  0  0
  7  8  2  0  0  0
  8  9  1  0  0  0
  9 10  2  0  0  0
 15 11  1  0  0  0
 10  1  1  0  0  0
 25 21  1  0  0  0
  9  4  1  0  0  0
 29 22  1  0  0  0
 40 36  1  0  0  0
 18 19  1  0  0  0
M  END
> <minimizedAffinity>
-8.37856

> <CNNscore>
0.6726515293

> <CNNaffinity>
7.4975919724

> <CNN_VS>
5.0432667732

> <CNNaffinity_variance>
0.0514206477

$$$$
[H]c1c(-c2nc3c([H])c(OC([H])([H])C([H])([H])C([H])([H])N4C([H])([H])C([H])([H])C([H])([H])C4([H])[H])c(OC([H])([H])[H])c([H])c3c(N([H])C([H])([H])C3([H])C4([H])C([H])([H])N(C([H])([H])[H])C([H])([H])C3([H])C([H])([H])C4([H])[H])c2[H])oc(C([H])([H])C([H])([H])[H])c1[H]


 40 45  0  0  0  0  0  0  0  0999 V2000
   33.6814  -18.3730   35.6653 C   0  0  0  0  0  0  0  0  0  0  0  0
   34.9769  -18.7269   36.0227 C   0  0  0  0  0  0  0  0  0  0  0  0
   35.9246  -17.7898   36.3736 C   0  0  0  0  0  0  0  0  0  0  0  0
   35.5492  -16.4662   36.3615 C   0  0  0  0  0  0  0  0  0  0  0  0
   36.4232  -15.4503   36.6960 C   0  0  0  0  0  0  0  0  0  0  0  0
   36.0527  -14.1222   36.6849 C   0  0  0  0  0  0  0  0  0  0  0  0
   34.7586  -13.7565   36.3287 C   0  0  0  0  0  0  0  0  0  0  0  0
   33.8864  -14.7571   35.9961 C   0  0  0  0  0  0  0  0  0  0  0  0
   34.2565  -16.0865   36.0069 C   0  0  0  0  0  0  0  0  0  0  0  0
   33.3812  -17.0649   35.6744 N   0  0  0  0  0  0  0  0  0  0  0  0
   30.7968  -20.4252   35.2564 C   0  0  0  0  0  0  0  0  0  0  0  0
   31.6553  -21.1219   34.4261 C   0  0  0  0  0  0  0  0  0  0  0  0
   32.8586  -20.4525   34.4609 C   0  0  0  0  0  0  0  0  0  0  0  0
   32.6946  -19.3831   35.3011 C   0  0  0  0  0  0  0  0  0  0  0  0
   31.4649  -19.4091   35.7449 O   0  0  0  0  0  0  0  0  0  0  0  0
   29.3563  -21.9184   36.4967 C   0  0  0  0  0  0  0  0  0  0  0  0
   29.3870  -20.7275   35.5665 C   0  0  0  0  0  0  0  0  0  0  0  0
   37.2463  -18.1996   36.7376 N   0  0  0  0  0  0  0  0  0  0  0  0
   37.8412  -17.6437   37.3722 H   0  0  0  0  0  0  0  0  0  0  0  0
   37.8143  -19.4322   36.2219 C   0  0  0  0  0  0  0  0  0  0  0  0
   38.6206  -19.1415   35.0099 C   0  0  0  0  0  0  0  0  0  0  0  0
   38.5886  -20.1957   33.9439 C   0  0  0  0  0  0  0  0  0  0  0  0
   39.6409  -19.6440   32.9745 C   0  0  0  0  0  0  0  0  0  0  0  0
   40.5992  -18.8334   33.8252 C   0  0  0  0  0  0  0  0  0  0  0  0
   40.1052  -19.0291   35.2664 C   0  0  0  0  0  0  0  0  0  0  0  0
   40.7217  -20.2924   35.7662 C   0  0  0  0  0  0  0  0  0  0  0  0
   40.3722  -21.4721   35.0736 N   0  0  0  0  0  0  0  0  0  0  0  0
   41.4310  -22.1120   34.3531 C   0  0  0  0  0  0  0  0  0  0  0  0
   39.0983  -21.5002   34.4548 C   0  0  0  0  0  0  0  0  0  0  0  0
   36.9644  -13.1287   37.0286 O   0  0  0  0  0  0  0  0  0  0  0  0
   38.1471  -13.4741   37.7068 C   0  0  0  0  0  0  0  0  0  0  0  0
   34.4527  -12.4234   36.3371 O   0  0  0  0  0  0  0  0  0  0  0  0
   33.9777  -11.6586   37.3989 C   0  0  0  0  0  0  0  0  0  0  0  0
   32.8702  -12.4639   38.0912 C   0  0  0  0  0  0  0  0  0  0  0  0
   31.5534  -12.1193   37.4218 C   0  0  0  0  0  0  0  0  0  0  0  0
   30.5940  -11.5382   38.3028 N   0  0  0  0  0  0  0  0  0  0  0  0
   29.6230  -10.6904   37.6883 C   0  0  0  0  0  0  0  0  0  0  0  0
   28.2788  -11.3683   37.8302 C   0  0  0  0  0  0  0  0  0  0  0  0
   28.5095  -12.5886   38.6976 C   0  0  0  0  0  0  0  0  0  0  0  0
   29.9195  -12.4388   39.1801 C   0  0  0  0  0  0  0  0  0  0  0  0
 16 17  1  0  0  0
 17 11  1  0  0  0
 11 12  2  0  0  0
 12 13  1  0  0  0
 13 14  2  0  0  0
 14 15  1  0  0  0
 14  1  1  0  0  0
  1  2  2  0  0  0
  2  3  1  0  0  0
  3 18  1  0  0  0
 18 20  1  0  0  0
 20 21  1  0  0  0
 21 22  1  0  0  0
 22 23  1  0  0  0
 23 24  1  0  0  0
 24 25  1  0  0  0
 25 26  1  0  0  0
 26 27  1  0  0  0
 27 28  1  0  0  0
 27 29  1  0  0  0
  3  4  2  0  0  0
  4  5  1  0  0  0
  5  6  2  0  0  0
  6 30  1  0  0  0
 30 31  1  0  0  0
  6  7  1  0  0  0
  7 32  1  0  0  0
 32 33  1  0  0  0
 33 34  1  0  0  0
 34 35  1  0  0  0
 35 36  1  0  0  0
 36 37  1  0  0  0
 37 38  1  0  0  0
 38 39  1  0  0  0
 39 40  1  0  0  0
  7  8  2  0  0  0
  8  9  1  0  0  0
  9 10  2  0  0  0
 15 11  1  0  0  0
 10  1  1  0  0  0
 25 21  1  0  0  0
  9  4  1  0  0  0
 29 22  1  0  0  0
 40 36  1  0  0  0
 18 19  1  0  0  0
M  END
> <minimizedAffinity>
-8.64710

> <CNNscore>
0.6300383210

> <CNNaffinity>
7.3676500320

> <CNN_VS>
4.6419019699

> <CNNaffinity_variance>
0.0876020044

$$$$
[H]c1c(-c2nc3c([H])c(OC([H])([H])C([H])([H])C([H])([H])N4C([H])([H])C([H])([H])C([H])([H])C4([H])[H])c(OC([H])([H])[H])c([H])c3c(N([H])C([H])([H])C3([H])C4([H])C([H])([H])N(C([H])([H])[H])C([H])([H])C3([H])C([H])([H])C4([H])[H])c2[H])oc(C([H])([H])C([H])([H])[H])c1[H]


 40 45  0  0  0  0  0  0  0  0999 V2000
   34.2800  -19.1250   35.3163 C   0  0  0  0  0  0  0  0  0  0  0  0
   35.6632  -19.1379   35.1838 C   0  0  0  0  0  0  0  0  0  0  0  0
   36.4344  -18.0193   35.4155 C   0  0  0  0  0  0  0  0  0  0  0  0
   35.7877  -16.8640   35.7894 C   0  0  0  0  0  0  0  0  0  0  0  0
   36.4681  -15.6893   36.0443 C   0  0  0  0  0  0  0  0  0  0  0  0
   35.8252  -14.5283   36.4186 C   0  0  0  0  0  0  0  0  0  0  0  0
   34.4409  -14.5039   36.5543 C   0  0  0  0  0  0  0  0  0  0  0  0
   33.7593  -15.6636   36.3037 C   0  0  0  0  0  0  0  0  0  0  0  0
   34.4020  -16.8260   35.9290 C   0  0  0  0  0  0  0  0  0  0  0  0
   33.7126  -17.9655   35.6840 N   0  0  0  0  0  0  0  0  0  0  0  0
   32.6393  -22.2872   35.4065 C   0  0  0  0  0  0  0  0  0  0  0  0
   32.1368  -21.8372   34.1995 C   0  0  0  0  0  0  0  0  0  0  0  0
   32.6797  -20.5883   33.9935 C   0  0  0  0  0  0  0  0  0  0  0  0
   33.4852  -20.3224   35.0691 C   0  0  0  0  0  0  0  0  0  0  0  0
   33.4292  -21.3516   35.8737 O   0  0  0  0  0  0  0  0  0  0  0  0
   31.6636  -24.4777   35.1017 C   0  0  0  0  0  0  0  0  0  0  0  0
   32.3683  -23.5694   36.0829 C   0  0  0  0  0  0  0  0  0  0  0  0
   37.8565  -18.0789   35.2697 N   0  0  0  0  0  0  0  0  0  0  0  0
   38.3862  -17.3738   34.7331 H   0  0  0  0  0  0  0  0  0  0  0  0
   38.6252  -19.1494   35.8789 C   0  0  0  0  0  0  0  0  0  0  0  0
   40.0633  -18.9796   35.5526 C   0  0  0  0  0  0  0  0  0  0  0  0
   40.4831  -19.4777   34.2019 C   0  0  0  0  0  0  0  0  0  0  0  0
   42.0034  -19.3040   34.3009 C   0  0  0  0  0  0  0  0  0  0  0  0
   42.3363  -19.4239   35.7752 C   0  0  0  0  0  0  0  0  0  0  0  0
   40.9978  -19.7525   36.4535 C   0  0  0  0  0  0  0  0  0  0  0  0
   40.8220  -21.2315   36.3675 C   0  0  0  0  0  0  0  0  0  0  0  0
   40.7403  -21.7741   35.0665 N   0  0  0  0  0  0  0  0  0  0  0  0
   41.8231  -22.6243   34.6736 C   0  0  0  0  0  0  0  0  0  0  0  0
   40.2131  -20.9363   34.0531 C   0  0  0  0  0  0  0  0  0  0  0  0
   36.5483  -13.3654   36.6661 O   0  0  0  0  0  0  0  0  0  0  0  0
   37.7639  -13.4384   37.3697 C   0  0  0  0  0  0  0  0  0  0  0  0
   33.8624  -13.3222   36.9282 O   0  0  0  0  0  0  0  0  0  0  0  0
   33.3876  -12.9592   38.1855 C   0  0  0  0  0  0  0  0  0  0  0  0
   31.9676  -12.4075   38.0032 C   0  0  0  0  0  0  0  0  0  0  0  0
   32.0409  -11.2356   37.0430 C   0  0  0  0  0  0  0  0  0  0  0  0
   32.5201  -10.0316   37.6388 N   0  0  0  0  0  0  0  0  0  0  0  0
   33.9088   -9.7577   37.4503 C   0  0  0  0  0  0  0  0  0  0  0  0
   34.0108   -8.5221   36.5846 C   0  0  0  0  0  0  0  0  0  0  0  0
   32.5959   -8.0103   36.4090 C   0  0  0  0  0  0  0  0  0  0  0  0
   31.7803   -8.8474   37.3457 C   0  0  0  0  0  0  0  0  0  0  0  0
 16 17  1  0  0  0
 17 11  1  0  0  0
 11 12  2  0  0  0
 12 13  1  0  0  0
 13 14  2  0  0  0
 14 15  1  0  0  0
 14  1  1  0  0  0
  1  2  2  0  0  0
  2  3  1  0  0  0
  3 18  1  0  0  0
 18 20  1  0  0  0
 20 21  1  0  0  0
 21 22  1  0  0  0
 22 23  1  0  0  0
 23 24  1  0  0  0
 24 25  1  0  0  0
 25 26  1  0  0  0
 26 27  1  0  0  0
 27 28  1  0  0  0
 27 29  1  0  0  0
  3  4  2  0  0  0
  4  5  1  0  0  0
  5  6  2  0  0  0
  6 30  1  0  0  0
 30 31  1  0  0  0
  6  7  1  0  0  0
  7 32  1  0  0  0
 32 33  1  0  0  0
 33 34  1  0  0  0
 34 35  1  0  0  0
 35 36  1  0  0  0
 36 37  1  0  0  0
 37 38  1  0  0  0
 38 39  1  0  0  0
 39 40  1  0  0  0
  7  8  2  0  0  0
  8  9  1  0  0  0
  9 10  2  0  0  0
 15 11  1  0  0  0
 10  1  1  0  0  0
 25 21  1  0  0  0
  9  4  1  0  0  0
 29 22  1  0  0  0
 40 36  1  0  0  0
 18 19  1  0  0  0
M  END
> <minimizedAffinity>
-7.62472

> <CNNscore>
0.4154265821

> <CNNaffinity>
6.9783248901

> <CNN_VS>
2.8989815712

> <CNNaffinity_variance>
0.0180744622

$$$$
[H]c1c(-c2nc3c([H])c(OC([H])([H])C([H])([H])C([H])([H])N4C([H])([H])C([H])([H])C([H])([H])C4([H])[H])c(OC([H])([H])[H])c([H])c3c(N([H])C([H])([H])C3([H])C4([H])C([H])([H])N(C([H])([H])[H])C([H])([H])C3([H])C([H])([H])C4([H])[H])c2[H])oc(C([H])([H])C([H])([H])[H])c1[H]


 40 45  0  0  0  0  0  0  0  0999 V2000
   34.5961  -16.6130   35.6428 C   0  0  0  0  0  0  0  0  0  0  0  0
   35.5448  -17.4308   35.0411 C   0  0  0  0  0  0  0  0  0  0  0  0
   35.2369  -18.6871   34.5652 C   0  0  0  0  0  0  0  0  0  0  0  0
   33.9389  -19.1218   34.7031 C   0  0  0  0  0  0  0  0  0  0  0  0
   33.5278  -20.3639   34.2601 C   0  0  0  0  0  0  0  0  0  0  0  0
   32.2286  -20.8051   34.3963 C   0  0  0  0  0  0  0  0  0  0  0  0
   31.2705  -19.9949   34.9972 C   0  0  0  0  0  0  0  0  0  0  0  0
   31.6696  -18.7627   35.4387 C   0  0  0  0  0  0  0  0  0  0  0  0
   32.9698  -18.3204   35.3027 C   0  0  0  0  0  0  0  0  0  0  0  0
   33.3488  -17.0981   35.7456 N   0  0  0  0  0  0  0  0  0  0  0  0
   34.6656  -13.2979   36.9485 C   0  0  0  0  0  0  0  0  0  0  0  0
   36.0247  -13.4640   36.7562 C   0  0  0  0  0  0  0  0  0  0  0  0
   36.1926  -14.7297   36.2396 C   0  0  0  0  0  0  0  0  0  0  0  0
   34.9449  -15.2857   36.1357 C   0  0  0  0  0  0  0  0  0  0  0  0
   34.0787  -14.4051   36.5648 O   0  0  0  0  0  0  0  0  0  0  0  0
   32.8537  -12.6025   38.3895 C   0  0  0  0  0  0  0  0  0  0  0  0
   33.9602  -12.1174   37.4814 C   0  0  0  0  0  0  0  0  0  0  0  0
   36.2454  -19.4942   33.9496 N   0  0  0  0  0  0  0  0  0  0  0  0
   36.0301  -20.3977   33.4989 H   0  0  0  0  0  0  0  0  0  0  0  0
   37.6339  -19.0703   33.9334 C   0  0  0  0  0  0  0  0  0  0  0  0
   38.5171  -20.2457   34.1376 C   0  0  0  0  0  0  0  0  0  0  0  0
   38.8813  -20.5411   35.5619 C   0  0  0  0  0  0  0  0  0  0  0  0
   39.9068  -21.6634   35.3605 C   0  0  0  0  0  0  0  0  0  0  0  0
   40.5211  -21.4194   33.9959 C   0  0  0  0  0  0  0  0  0  0  0  0
   39.8836  -20.1099   33.5077 C   0  0  0  0  0  0  0  0  0  0  0  0
   40.6955  -18.9958   34.0783 C   0  0  0  0  0  0  0  0  0  0  0  0
   40.7294  -18.9083   35.4871 N   0  0  0  0  0  0  0  0  0  0  0  0
   41.9989  -19.1589   36.0996 C   0  0  0  0  0  0  0  0  0  0  0  0
   39.5983  -19.3938   36.1883 C   0  0  0  0  0  0  0  0  0  0  0  0
   31.8553  -22.0643   33.9365 O   0  0  0  0  0  0  0  0  0  0  0  0
   31.9588  -23.1762   34.7915 C   0  0  0  0  0  0  0  0  0  0  0  0
   29.9996  -20.4894   35.1028 O   0  0  0  0  0  0  0  0  0  0  0  0
   29.3542  -20.9607   36.2426 C   0  0  0  0  0  0  0  0  0  0  0  0
   28.5114  -22.1745   35.8297 C   0  0  0  0  0  0  0  0  0  0  0  0
   28.0655  -22.8858   37.0931 C   0  0  0  0  0  0  0  0  0  0  0  0
   27.9253  -24.2969   36.9409 N   0  0  0  0  0  0  0  0  0  0  0  0
   27.9037  -24.7753   35.5955 C   0  0  0  0  0  0  0  0  0  0  0  0
   29.1540  -25.6007   35.3908 C   0  0  0  0  0  0  0  0  0  0  0  0
   29.8252  -25.6957   36.7456 C   0  0  0  0  0  0  0  0  0  0  0  0
   28.8292  -25.1035   37.6946 C   0  0  0  0  0  0  0  0  0  0  0  0
 16 17  1  0  0  0
 17 11  1  0  0  0
 11 12  2  0  0  0
 12 13  1  0  0  0
 13 14  2  0  0  0
 14 15  1  0  0  0
 14  1  1  0  0  0
  1  2  2  0  0  0
  2  3  1  0  0  0
  3 18  1  0  0  0
 18 20  1  0  0  0
 20 21  1  0  0  0
 21 22  1  0  0  0
 22 23  1  0  0  0
 23 24  1  0  0  0
 24 25  1  0  0  0
 25 26  1  0  0  0
 26 27  1  0  0  0
 27 28  1  0  0  0
 27 29  1  0  0  0
  3  4  2  0  0  0
  4  5  1  0  0  0
  5  6  2  0  0  0
  6 30  1  0  0  0
 30 31  1  0  0  0
  6  7  1  0  0  0
  7 32  1  0  0  0
 32 33  1  0  0  0
 33 34  1  0  0  0
 34 35  1  0  0  0
 35 36  1  0  0  0
 36 37  1  0  0  0
 37 38  1  0  0  0
 38 39  1  0  0  0
 39 40  1  0  0  0
  7  8  2  0  0  0
  8  9  1  0  0  0
  9 10  2  0  0  0
 15 11  1  0  0  0
 10  1  1  0  0  0
 25 21  1  0  0  0
  9  4  1  0  0  0
 29 22  1  0  0  0
 40 36  1  0  0  0
 18 19  1  0  0  0
M  END
> <minimizedAffinity>
-7.28719

> <CNNscore>
0.3904124796

> <CNNaffinity>
6.6381363869

> <CNN_VS>
2.5916113853

> <CNNaffinity_variance>
0.3351762593

$$$$
[H]c1c(-c2nc3c([H])c(OC([H])([H])C([H])([H])C([H])([H])N4C([H])([H])C([H])([H])C([H])([H])C4([H])[H])c(OC([H])([H])[H])c([H])c3c(N([H])C([H])([H])C3([H])C4([H])C([H])([H])N(C([H])([H])[H])C([H])([H])C3([H])C([H])([H])C4([H])[H])c2[H])oc(C([H])([H])C([H])([H])[H])c1[H]


 40 45  0  0  0  0  0  0  0  0999 V2000
   34.0010  -19.9612   35.9132 C   0  0  0  0  0  0  0  0  0  0  0  0
   35.1252  -20.2821   36.6643 C   0  0  0  0  0  0  0  0  0  0  0  0
   35.9320  -19.3177   37.2287 C   0  0  0  0  0  0  0  0  0  0  0  0
   35.5902  -18.0005   37.0262 C   0  0  0  0  0  0  0  0  0  0  0  0
   36.3325  -16.9590   37.5480 C   0  0  0  0  0  0  0  0  0  0  0  0
   35.9951  -15.6372   37.3477 C   0  0  0  0  0  0  0  0  0  0  0  0
   34.8719  -15.3044   36.5973 C   0  0  0  0  0  0  0  0  0  0  0  0
   34.1310  -16.3304   36.0769 C   0  0  0  0  0  0  0  0  0  0  0  0
   34.4680  -17.6536   36.2769 C   0  0  0  0  0  0  0  0  0  0  0  0
   33.7244  -18.6575   35.7544 N   0  0  0  0  0  0  0  0  0  0  0  0
   32.0764  -22.8681   35.1741 C   0  0  0  0  0  0  0  0  0  0  0  0
   31.8753  -22.1896   33.9863 C   0  0  0  0  0  0  0  0  0  0  0  0
   32.5676  -21.0037   34.0936 C   0  0  0  0  0  0  0  0  0  0  0  0
   33.1602  -20.9996   35.3287 C   0  0  0  0  0  0  0  0  0  0  0  0
   32.8423  -22.1176   35.9276 O   0  0  0  0  0  0  0  0  0  0  0  0
   30.0440  -24.0908   35.6402 C   0  0  0  0  0  0  0  0  0  0  0  0
   31.5505  -24.1886   35.5673 C   0  0  0  0  0  0  0  0  0  0  0  0
   37.0787  -19.6938   37.9975 N   0  0  0  0  0  0  0  0  0  0  0  0
   37.9903  -19.2199   37.8965 H   0  0  0  0  0  0  0  0  0  0  0  0
   37.0073  -20.7737   38.9652 C   0  0  0  0  0  0  0  0  0  0  0  0
   35.6546  -20.8084   39.5756 C   0  0  0  0  0  0  0  0  0  0  0  0
   35.5902  -20.4343   41.0263 C   0  0  0  0  0  0  0  0  0  0  0  0
   34.1218  -20.7536   41.3316 C   0  0  0  0  0  0  0  0  0  0  0  0
   33.7291  -21.8511   40.3620 C   0  0  0  0  0  0  0  0  0  0  0  0
   35.0207  -22.1795   39.5980 C   0  0  0  0  0  0  0  0  0  0  0  0
   35.7706  -23.1702   40.4239 C   0  0  0  0  0  0  0  0  0  0  0  0
   36.1779  -22.7329   41.7031 N   0  0  0  0  0  0  0  0  0  0  0  0
   35.5573  -23.3868   42.8153 C   0  0  0  0  0  0  0  0  0  0  0  0
   36.4241  -21.3467   41.8599 C   0  0  0  0  0  0  0  0  0  0  0  0
   36.7702  -14.6172   37.8911 O   0  0  0  0  0  0  0  0  0  0  0  0
   37.6893  -13.9323   37.0761 C   0  0  0  0  0  0  0  0  0  0  0  0
   34.5903  -13.9758   36.4347 O   0  0  0  0  0  0  0  0  0  0  0  0
   33.3411  -13.3646   36.3737 C   0  0  0  0  0  0  0  0  0  0  0  0
   33.1867  -12.4986   37.6308 C   0  0  0  0  0  0  0  0  0  0  0  0
   32.0893  -11.4848   37.3685 C   0  0  0  0  0  0  0  0  0  0  0  0
   32.3841  -10.1775   37.8565 N   0  0  0  0  0  0  0  0  0  0  0  0
   33.7261   -9.7310   37.6592 C   0  0  0  0  0  0  0  0  0  0  0  0
   33.6778   -8.5757   36.6849 C   0  0  0  0  0  0  0  0  0  0  0  0
   32.2105   -8.2834   36.4471 C   0  0  0  0  0  0  0  0  0  0  0  0
   31.4957   -9.1387   37.4475 C   0  0  0  0  0  0  0  0  0  0  0  0
 16 17  1  0  0  0
 17 11  1  0  0  0
 11 12  2  0  0  0
 12 13  1  0  0  0
 13 14  2  0  0  0
 14 15  1  0  0  0
 14  1  1  0  0  0
  1  2  2  0  0  0
  2  3  1  0  0  0
  3 18  1  0  0  0
 18 20  1  0  0  0
 20 21  1  0  0  0
 21 22  1  0  0  0
 22 23  1  0  0  0
 23 24  1  0  0  0
 24 25  1  0  0  0
 25 26  1  0  0  0
 26 27  1  0  0  0
 27 28  1  0  0  0
 27 29  1  0  0  0
  3  4  2  0  0  0
  4  5  1  0  0  0
  5  6  2  0  0  0
  6 30  1  0  0  0
 30 31  1  0  0  0
  6  7  1  0  0  0
  7 32  1  0  0  0
 32 33  1  0  0  0
 33 34  1  0  0  0
 34 35  1  0  0  0
 35 36  1  0  0  0
 36 37  1  0  0  0
 37 38  1  0  0  0
 38 39  1  0  0  0
 39 40  1  0  0  0
  7  8  2  0  0  0
  8  9  1  0  0  0
  9 10  2  0  0  0
 15 11  1  0  0  0
 10  1  1  0  0  0
 25 21  1  0  0  0
  9  4  1  0  0  0
 29 22  1  0  0  0
 40 36  1  0  0  0
 18 19  1  0  0  0
M  END
> <minimizedAffinity>
-6.39036

> <CNNscore>
0.3024713099

> <CNNaffinity>
6.4678053856

> <CNN_VS>
1.9563255310

> <CNNaffinity_variance>
0.0453259796

$$$$
[H]c1c(-c2nc3c([H])c(OC([H])([H])C([H])([H])C([H])([H])N4C([H])([H])C([H])([H])C([H])([H])C4([H])[H])c(OC([H])([H])[H])c([H])c3c(N([H])C([H])([H])C3([H])C4([H])C([H])([H])N(C([H])([H])[H])C([H])([H])C3([H])C([H])([H])C4([H])[H])c2[H])oc(C([H])([H])C([H])([H])[H])c1[H]


 40 45  0  0  0  0  0  0  0  0999 V2000
   36.6104  -18.2820   36.8174 C   0  0  0  0  0  0  0  0  0  0  0  0
   35.7170  -19.3451   36.7645 C   0  0  0  0  0  0  0  0  0  0  0  0
   36.1280  -20.6566   36.8679 C   0  0  0  0  0  0  0  0  0  0  0  0
   37.4738  -20.8934   37.0283 C   0  0  0  0  0  0  0  0  0  0  0  0
   37.9879  -22.1704   37.1412 C   0  0  0  0  0  0  0  0  0  0  0  0
   39.3357  -22.4137   37.3014 C   0  0  0  0  0  0  0  0  0  0  0  0
   40.2390  -21.3571   37.3556 C   0  0  0  0  0  0  0  0  0  0  0  0
   39.7377  -20.0887   37.2447 C   0  0  0  0  0  0  0  0  0  0  0  0
   38.3890  -19.8444   37.0843 C   0  0  0  0  0  0  0  0  0  0  0  0
   37.9089  -18.5829   36.9754 N   0  0  0  0  0  0  0  0  0  0  0  0
   36.1588  -14.7494   36.9446 C   0  0  0  0  0  0  0  0  0  0  0  0
   35.0003  -15.0732   36.2630 C   0  0  0  0  0  0  0  0  0  0  0  0
   35.0041  -16.4429   36.1180 C   0  0  0  0  0  0  0  0  0  0  0  0
   36.1513  -16.9021   36.7092 C   0  0  0  0  0  0  0  0  0  0  0  0
   36.7982  -15.8686   37.1815 O   0  0  0  0  0  0  0  0  0  0  0  0
   38.0848  -13.5294   37.7479 C   0  0  0  0  0  0  0  0  0  0  0  0
   36.6309  -13.4128   37.3517 C   0  0  0  0  0  0  0  0  0  0  0  0
   35.1725  -21.7202   36.8111 N   0  0  0  0  0  0  0  0  0  0  0  0
   34.9655  -22.2298   35.9375 H   0  0  0  0  0  0  0  0  0  0  0  0
   34.4433  -22.1327   37.9968 C   0  0  0  0  0  0  0  0  0  0  0  0
   33.1290  -22.6992   37.6027 C   0  0  0  0  0  0  0  0  0  0  0  0
   32.0800  -22.7050   38.6742 C   0  0  0  0  0  0  0  0  0  0  0  0
   30.9707  -23.4992   37.9740 C   0  0  0  0  0  0  0  0  0  0  0  0
   31.6760  -24.4090   36.9872 C   0  0  0  0  0  0  0  0  0  0  0  0
   33.1730  -24.1620   37.2275 C   0  0  0  0  0  0  0  0  0  0  0  0
   33.5827  -25.0541   38.3509 C   0  0  0  0  0  0  0  0  0  0  0  0
   32.9484  -24.8244   39.5913 N   0  0  0  0  0  0  0  0  0  0  0  0
   32.0865  -25.8686   40.0564 C   0  0  0  0  0  0  0  0  0  0  0  0
   32.5159  -23.5018   39.8565 C   0  0  0  0  0  0  0  0  0  0  0  0
   39.8131  -23.7162   37.4112 O   0  0  0  0  0  0  0  0  0  0  0  0
   39.1097  -24.6516   38.1911 C   0  0  0  0  0  0  0  0  0  0  0  0
   41.5624  -21.6635   37.5158 O   0  0  0  0  0  0  0  0  0  0  0  0
   42.6696  -20.9019   37.1525 C   0  0  0  0  0  0  0  0  0  0  0  0
   42.8330  -21.0177   35.6313 C   0  0  0  0  0  0  0  0  0  0  0  0
   42.5912  -19.6465   35.0293 C   0  0  0  0  0  0  0  0  0  0  0  0
   41.8543  -19.6751   33.8085 N   0  0  0  0  0  0  0  0  0  0  0  0
   41.0125  -20.8131   33.6200 C   0  0  0  0  0  0  0  0  0  0  0  0
   39.5821  -20.3231   33.6360 C   0  0  0  0  0  0  0  0  0  0  0  0
   39.6533  -18.8110   33.6940 C   0  0  0  0  0  0  0  0  0  0  0  0
   41.1055  -18.5008   33.4986 C   0  0  0  0  0  0  0  0  0  0  0  0
 16 17  1  0  0  0
 17 11  1  0  0  0
 11 12  2  0  0  0
 12 13  1  0  0  0
 13 14  2  0  0  0
 14 15  1  0  0  0
 14  1  1  0  0  0
  1  2  2  0  0  0
  2  3  1  0  0  0
  3 18  1  0  0  0
 18 20  1  0  0  0
 20 21  1  0  0  0
 21 22  1  0  0  0
 22 23  1  0  0  0
 23 24  1  0  0  0
 24 25  1  0  0  0
 25 26  1  0  0  0
 26 27  1  0  0  0
 27 28  1  0  0  0
 27 29  1  0  0  0
  3  4  2  0  0  0
  4  5  1  0  0  0
  5  6  2  0  0  0
  6 30  1  0  0  0
 30 31  1  0  0  0
  6  7  1  0  0  0
  7 32  1  0  0  0
 32 33  1  0  0  0
 33 34  1  0  0  0
 34 35  1  0  0  0
 35 36  1  0  0  0
 36 37  1  0  0  0
 37 38  1  0  0  0
 38 39  1  0  0  0
 39 40  1  0  0  0
  7  8  2  0  0  0
  8  9  1  0  0  0
  9 10  2  0  0  0
 15 11  1  0  0  0
 10  1  1  0  0  0
 25 21  1  0  0  0
  9  4  1  0  0  0
 29 22  1  0  0  0
 40 36  1  0  0  0
 18 19  1  0  0  0
M  END
> <minimizedAffinity>
-5.19832

> <CNNscore>
0.2373003364

> <CNNaffinity>
6.0521011353

> <CNN_VS>
1.4361656904

> <CNNaffinity_variance>
0.2055347860

$$$$
[H]c1c(-c2nc3c([H])c(OC([H])([H])C([H])([H])C([H])([H])N4C([H])([H])C([H])([H])C([H])([H])C4([H])[H])c(OC([H])([H])[H])c([H])c3c(N([H])C([H])([H])C3([H])C4([H])C([H])([H])N(C([H])([H])[H])C([H])([H])C3([H])C([H])([H])C4([H])[H])c2[H])oc(C([H])([H])C([H])([H])[H])c1[H]


 40 45  0  0  0  0  0  0  0  0999 V2000
   36.3447  -16.9397   36.9041 C   0  0  0  0  0  0  0  0  0  0  0  0
   36.7188  -17.5360   35.7060 C   0  0  0  0  0  0  0  0  0  0  0  0
   36.7373  -18.9041   35.5401 C   0  0  0  0  0  0  0  0  0  0  0  0
   36.3684  -19.6826   36.6128 C   0  0  0  0  0  0  0  0  0  0  0  0
   36.3536  -21.0624   36.5501 C   0  0  0  0  0  0  0  0  0  0  0  0
   35.9855  -21.8475   37.6222 C   0  0  0  0  0  0  0  0  0  0  0  0
   35.6093  -21.2613   38.8264 C   0  0  0  0  0  0  0  0  0  0  0  0
   35.6212  -19.8948   38.8967 C   0  0  0  0  0  0  0  0  0  0  0  0
   35.9894  -19.1082   37.8242 C   0  0  0  0  0  0  0  0  0  0  0  0
   35.9964  -17.7568   37.9103 N   0  0  0  0  0  0  0  0  0  0  0  0
   35.5390  -13.4735   37.0945 C   0  0  0  0  0  0  0  0  0  0  0  0
   36.8842  -13.3817   37.4007 C   0  0  0  0  0  0  0  0  0  0  0  0
   37.3781  -14.6672   37.3731 C   0  0  0  0  0  0  0  0  0  0  0  0
   36.3296  -15.4893   37.0548 C   0  0  0  0  0  0  0  0  0  0  0  0
   35.2684  -14.7410   36.9003 O   0  0  0  0  0  0  0  0  0  0  0  0
   33.2049  -12.9271   37.4047 C   0  0  0  0  0  0  0  0  0  0  0  0
   34.5529  -12.3815   36.9932 C   0  0  0  0  0  0  0  0  0  0  0  0
   37.1266  -19.4751   34.2872 N   0  0  0  0  0  0  0  0  0  0  0  0
   36.5552  -20.1860   33.8035 H   0  0  0  0  0  0  0  0  0  0  0  0
   38.3596  -19.0731   33.6345 C   0  0  0  0  0  0  0  0  0  0  0  0
   39.3578  -20.1671   33.7358 C   0  0  0  0  0  0  0  0  0  0  0  0
   39.9559  -20.3729   35.0954 C   0  0  0  0  0  0  0  0  0  0  0  0
   41.0285  -21.4202   34.7725 C   0  0  0  0  0  0  0  0  0  0  0  0
   41.4075  -21.1876   33.3230 C   0  0  0  0  0  0  0  0  0  0  0  0
   40.5976  -19.9531   32.8995 C   0  0  0  0  0  0  0  0  0  0  0  0
   41.3913  -18.7565   33.3046 C   0  0  0  0  0  0  0  0  0  0  0  0
   41.6300  -18.6070   34.6881 N   0  0  0  0  0  0  0  0  0  0  0  0
   42.9937  -18.7327   35.1053 C   0  0  0  0  0  0  0  0  0  0  0  0
   40.6617  -19.1482   35.5692 C   0  0  0  0  0  0  0  0  0  0  0  0
   35.9843  -23.2351   37.5176 O   0  0  0  0  0  0  0  0  0  0  0  0
   34.8435  -23.8949   37.0262 C   0  0  0  0  0  0  0  0  0  0  0  0
   35.2551  -22.0939   39.8522 O   0  0  0  0  0  0  0  0  0  0  0  0
   36.0906  -22.7555   40.7479 C   0  0  0  0  0  0  0  0  0  0  0  0
   36.6845  -21.7022   41.6924 C   0  0  0  0  0  0  0  0  0  0  0  0
   36.1858  -21.9970   43.0943 C   0  0  0  0  0  0  0  0  0  0  0  0
   35.3384  -20.9822   43.6295 N   0  0  0  0  0  0  0  0  0  0  0  0
   35.6269  -19.6487   43.2078 C   0  0  0  0  0  0  0  0  0  0  0  0
   34.4582  -19.1779   42.3718 C   0  0  0  0  0  0  0  0  0  0  0  0
   33.4080  -20.2660   42.4613 C   0  0  0  0  0  0  0  0  0  0  0  0
   33.9347  -21.2042   43.5032 C   0  0  0  0  0  0  0  0  0  0  0  0
 16 17  1  0  0  0
 17 11  1  0  0  0
 11 12  2  0  0  0
 12 13  1  0  0  0
 13 14  2  0  0  0
 14 15  1  0  0  0
 14  1  1  0  0  0
  1  2  2  0  0  0
  2  3  1  0  0  0
  3 18  1  0  0  0
 18 20  1  0  0  0
 20 21  1  0  0  0
 21 22  1  0  0  0
 22 23  1  0  0  0
 23 24  1  0  0  0
 24 25  1  0  0  0
 25 26  1  0  0  0
 26 27  1  0  0  0
 27 28  1  0  0  0
 27 29  1  0  0  0
  3  4  2  0  0  0
  4  5  1  0  0  0
  5  6  2  0  0  0
  6 30  1  0  0  0
 30 31  1  0  0  0
  6  7  1  0  0  0
  7 32  1  0  0  0
 32 33  1  0  0  0
 33 34  1  0  0  0
 34 35  1  0  0  0
 35 36  1  0  0  0
 36 37  1  0  0  0
 37 38  1  0  0  0
 38 39  1  0  0  0
 39 40  1  0  0  0
  7  8  2  0  0  0
  8  9  1  0  0  0
  9 10  2  0  0  0
 15 11  1  0  0  0
 10  1  1  0  0  0
 25 21  1  0  0  0
  9  4  1  0  0  0
 29 22  1  0  0  0
 40 36  1  0  0  0
 18 19  1  0  0  0
M  END
> <minimizedAffinity>
-6.52784

> <CNNscore>
0.2271978259

> <CNNaffinity>
6.3838000298

> <CNN_VS>
1.4503854513

> <CNNaffinity_variance>
0.2952350974

$$$$
[H]c1c(-c2nc3c([H])c(OC([H])([H])C([H])([H])C([H])([H])N4C([H])([H])C([H])([H])C([H])([H])C4([H])[H])c(OC([H])([H])[H])c([H])c3c(N([H])C3([H])C([H])([H])C([H])([H])N(C([H])([H])[H])C([H])([H])C3([H])[H])c2[H])sc(C([H])([H])[H])c1[H]


 36 40  0  0  0  0  0  0  0  0999 V2000
   36.1576  -14.2986   36.7226 C   0  0  0  0  0  0  0  0  0  0  0  0
   36.8051  -15.5256   36.6330 C   0  0  0  0  0  0  0  0  0  0  0  0
   36.1119  -16.6799   36.3125 C   0  0  0  0  0  0  0  0  0  0  0  0
   36.7101  -17.9164   36.2099 C   0  0  0  0  0  0  0  0  0  0  0  0
   35.8913  -18.9948   35.8765 C   0  0  0  0  0  0  0  0  0  0  0  0
   34.5614  -18.8225   35.6636 C   0  0  0  0  0  0  0  0  0  0  0  0
   34.0129  -17.6083   35.7715 N   0  0  0  0  0  0  0  0  0  0  0  0
   34.7372  -16.5275   36.0884 C   0  0  0  0  0  0  0  0  0  0  0  0
   34.1133  -15.3013   36.1819 C   0  0  0  0  0  0  0  0  0  0  0  0
   34.8209  -14.1669   36.5019 C   0  0  0  0  0  0  0  0  0  0  0  0
   33.7049  -19.9796   35.3081 C   0  0  0  0  0  0  0  0  0  0  0  0
   33.0643  -20.1999   34.1158 C   0  0  0  0  0  0  0  0  0  0  0  0
   32.3386  -21.3179   34.0099 C   0  0  0  0  0  0  0  0  0  0  0  0
   32.2958  -22.1476   35.0991 C   0  0  0  0  0  0  0  0  0  0  0  0
   31.5449  -23.4522   35.2033 C   0  0  0  0  0  0  0  0  0  0  0  0
   33.2711  -21.3392   36.2366 S   0  0  0  0  0  0  0  0  0  0  0  0
   38.2522  -13.3288   37.5254 C   0  0  0  0  0  0  0  0  0  0  0  0
   36.9285  -13.1977   37.0484 O   0  0  0  0  0  0  0  0  0  0  0  0
   38.0901  -18.0735   36.4484 N   0  0  0  0  0  0  0  0  0  0  0  0
   38.5922  -17.3651   37.0136 H   0  0  0  0  0  0  0  0  0  0  0  0
   38.8474  -19.2163   35.9237 C   0  0  0  0  0  0  0  0  0  0  0  0
   39.3160  -19.0416   34.5295 C   0  0  0  0  0  0  0  0  0  0  0  0
   40.7636  -18.8909   34.2902 C   0  0  0  0  0  0  0  0  0  0  0  0
   41.6451  -18.7909   35.3835 N   0  0  0  0  0  0  0  0  0  0  0  0
   42.7327  -19.7498   35.3607 C   0  0  0  0  0  0  0  0  0  0  0  0
   41.1188  -18.5520   36.6754 C   0  0  0  0  0  0  0  0  0  0  0  0
   39.9669  -19.5136   36.8988 C   0  0  0  0  0  0  0  0  0  0  0  0
   34.1486  -12.9489   36.5851 O   0  0  0  0  0  0  0  0  0  0  0  0
   32.7377  -12.9052   36.6709 C   0  0  0  0  0  0  0  0  0  0  0  0
   32.3640  -12.2270   37.9732 C   0  0  0  0  0  0  0  0  0  0  0  0
   30.8863  -12.2774   38.2302 C   0  0  0  0  0  0  0  0  0  0  0  0
   30.1919  -11.3737   37.3756 N   0  0  0  0  0  0  0  0  0  0  0  0
   28.7790  -11.3233   37.7647 C   0  0  0  0  0  0  0  0  0  0  0  0
   28.6748  -10.1971   38.7446 C   0  0  0  0  0  0  0  0  0  0  0  0
   29.8331   -9.2968   38.4439 C   0  0  0  0  0  0  0  0  0  0  0  0
   30.6401  -10.0190   37.3811 C   0  0  0  0  0  0  0  0  0  0  0  0
 17 18  1  0  0  0
 18  1  1  0  0  0
  1  2  2  0  0  0
  2  3  1  0  0  0
  3  4  2  0  0  0
  4 19  1  0  0  0
 19 21  1  0  0  0
 21 22  1  0  0  0
 22 23  1  0  0  0
 23 24  1  0  0  0
 24 25  1  0  0  0
 24 26  1  0  0  0
 26 27  1  0  0  0
  4  5  1  0  0  0
  5  6  2  0  0  0
  6  7  1  0  0  0
  7  8  2  0  0  0
  8  9  1  0  0  0
  9 10  2  0  0  0
 10 28  1  0  0  0
 28 29  1  0  0  0
 29 30  1  0  0  0
 30 31  1  0  0  0
 31 32  1  0  0  0
 32 33  1  0  0  0
 33 34  1  0  0  0
 34 35  1  0  0  0
 35 36  1  0  0  0
  6 11  1  0  0  0
 11 12  2  0  0  0
 12 13  1  0  0  0
 13 14  2  0  0  0
 14 15  1  0  0  0
 14 16  1  0  0  0
 10  1  1  0  0  0
 36 32  1  0  0  0
 16 11  1  0  0  0
  8  3  1  0  0  0
 27 21  1  0  0  0
 19 20  1  0  0  0
M  END
> <minimizedAffinity>
-8.57280

> <CNNscore>
0.5595914721

> <CNNaffinity>
6.9232087135

> <CNN_VS>
3.8741686344

> <CNNaffinity_variance>
0.0403246060

$$$$
[H]c1c(-c2nc3c([H])c(OC([H])([H])C([H])([H])C([H])([H])N4C([H])([H])C([H])([H])C([H])([H])C4([H])[H])c(OC([H])([H])[H])c([H])c3c(N([H])C3([H])C([H])([H])C([H])([H])N(C([H])([H])[H])C([H])([H])C3([H])[H])c2[H])sc(C([H])([H])[H])c1[H]


 36 40  0  0  0  0  0  0  0  0999 V2000
   36.1980  -14.4626   36.6569 C   0  0  0  0  0  0  0  0  0  0  0  0
   36.8394  -15.6960   36.6461 C   0  0  0  0  0  0  0  0  0  0  0  0
   36.1448  -16.8625   36.3769 C   0  0  0  0  0  0  0  0  0  0  0  0
   36.7371  -18.1059   36.3527 C   0  0  0  0  0  0  0  0  0  0  0  0
   35.9176  -19.1967   36.0644 C   0  0  0  0  0  0  0  0  0  0  0  0
   34.5926  -19.0294   35.8189 C   0  0  0  0  0  0  0  0  0  0  0  0
   34.0498  -17.8083   35.8505 N   0  0  0  0  0  0  0  0  0  0  0  0
   34.7751  -16.7156   36.1205 C   0  0  0  0  0  0  0  0  0  0  0  0
   34.1573  -15.4829   36.1358 C   0  0  0  0  0  0  0  0  0  0  0  0
   34.8661  -14.3363   36.4057 C   0  0  0  0  0  0  0  0  0  0  0  0
   33.7354  -20.1998   35.5121 C   0  0  0  0  0  0  0  0  0  0  0  0
   33.0527  -20.4434   34.3480 C   0  0  0  0  0  0  0  0  0  0  0  0
   32.3351  -21.5698   34.2851 C   0  0  0  0  0  0  0  0  0  0  0  0
   32.3419  -22.3843   35.3866 C   0  0  0  0  0  0  0  0  0  0  0  0
   31.6089  -23.6945   35.5373 C   0  0  0  0  0  0  0  0  0  0  0  0
   33.3509  -21.5502   36.4752 S   0  0  0  0  0  0  0  0  0  0  0  0
   38.1765  -13.4423   37.6652 C   0  0  0  0  0  0  0  0  0  0  0  0
   36.9699  -13.3496   36.9356 O   0  0  0  0  0  0  0  0  0  0  0  0
   38.1118  -18.2568   36.6239 N   0  0  0  0  0  0  0  0  0  0  0  0
   38.6597  -17.4379   36.9439 H   0  0  0  0  0  0  0  0  0  0  0  0
   38.8002  -19.5443   36.4717 C   0  0  0  0  0  0  0  0  0  0  0  0
   38.7993  -20.0699   35.0869 C   0  0  0  0  0  0  0  0  0  0  0  0
   40.0781  -20.1146   34.3532 C   0  0  0  0  0  0  0  0  0  0  0  0
   41.2325  -19.5494   34.9278 N   0  0  0  0  0  0  0  0  0  0  0  0
   42.3647  -20.4527   34.9999 C   0  0  0  0  0  0  0  0  0  0  0  0
   41.1001  -18.7055   36.0564 C   0  0  0  0  0  0  0  0  0  0  0  0
   40.1896  -19.3953   37.0546 C   0  0  0  0  0  0  0  0  0  0  0  0
   34.2001  -13.1121   36.4103 O   0  0  0  0  0  0  0  0  0  0  0  0
   32.8075  -13.0448   36.1731 C   0  0  0  0  0  0  0  0  0  0  0  0
   32.1560  -12.3799   37.3686 C   0  0  0  0  0  0  0  0  0  0  0  0
   31.4899  -11.0867   36.9995 C   0  0  0  0  0  0  0  0  0  0  0  0
   31.9405  -10.0269   37.8380 N   0  0  0  0  0  0  0  0  0  0  0  0
   33.3997  -10.0940   37.9667 C   0  0  0  0  0  0  0  0  0  0  0  0
   33.9372   -9.2215   36.8762 C   0  0  0  0  0  0  0  0  0  0  0  0
   32.8389   -8.2536   36.5605 C   0  0  0  0  0  0  0  0  0  0  0  0
   31.6548   -8.7000   37.3976 C   0  0  0  0  0  0  0  0  0  0  0  0
 17 18  1  0  0  0
 18  1  1  0  0  0
  1  2  2  0  0  0
  2  3  1  0  0  0
  3  4  2  0  0  0
  4 19  1  0  0  0
 19 21  1  0  0  0
 21 22  1  0  0  0
 22 23  1  0  0  0
 23 24  1  0  0  0
 24 25  1  0  0  0
 24 26  1  0  0  0
 26 27  1  0  0  0
  4  5  1  0  0  0
  5  6  2  0  0  0
  6  7  1  0  0  0
  7  8  2  0  0  0
  8  9  1  0  0  0
  9 10  2  0  0  0
 10 28  1  0  0  0
 28 29  1  0  0  0
 29 30  1  0  0  0
 30 31  1  0  0  0
 31 32  1  0  0  0
 32 33  1  0  0  0
 33 34  1  0  0  0
 34 35  1  0  0  0
 35 36  1  0  0  0
  6 11  1  0  0  0
 11 12  2  0  0  0
 12 13  1  0  0  0
 13 14  2  0  0  0
 14 15  1  0  0  0
 14 16  1  0  0  0
 10  1  1  0  0  0
 36 32  1  0  0  0
 16 11  1  0  0  0
  8  3  1  0  0  0
 27 21  1  0  0  0
 19 20  1  0  0  0
M  END
> <minimizedAffinity>
-7.73901

> <CNNscore>
0.4381422400

> <CNNaffinity>
6.8175201416

> <CNN_VS>
2.9870436192

> <CNNaffinity_variance>
0.0238567535

$$$$
[H]c1c(-c2nc3c([H])c(OC([H])([H])C([H])([H])C([H])([H])N4C([H])([H])C([H])([H])C([H])([H])C4([H])[H])c(OC([H])([H])[H])c([H])c3c(N([H])C3([H])C([H])([H])C([H])([H])N(C([H])([H])[H])C([H])([H])C3([H])[H])c2[H])sc(C([H])([H])[H])c1[H]


 36 40  0  0  0  0  0  0  0  0999 V2000
   39.2590  -20.9348   39.0353 C   0  0  0  0  0  0  0  0  0  0  0  0
   39.1294  -20.2396   37.8384 C   0  0  0  0  0  0  0  0  0  0  0  0
   37.8851  -19.9876   37.2871 C   0  0  0  0  0  0  0  0  0  0  0  0
   37.7070  -19.3016   36.1060 C   0  0  0  0  0  0  0  0  0  0  0  0
   36.3961  -19.1166   35.6679 C   0  0  0  0  0  0  0  0  0  0  0  0
   35.3463  -19.5962   36.3832 C   0  0  0  0  0  0  0  0  0  0  0  0
   35.5547  -20.2578   37.5258 N   0  0  0  0  0  0  0  0  0  0  0  0
   36.7855  -20.4731   38.0072 C   0  0  0  0  0  0  0  0  0  0  0  0
   36.9349  -21.1606   39.1932 C   0  0  0  0  0  0  0  0  0  0  0  0
   38.1806  -21.4003   39.7233 C   0  0  0  0  0  0  0  0  0  0  0  0
   33.9583  -19.3893   35.9041 C   0  0  0  0  0  0  0  0  0  0  0  0
   33.4996  -18.3685   35.1116 C   0  0  0  0  0  0  0  0  0  0  0  0
   32.2002  -18.3766   34.7966 C   0  0  0  0  0  0  0  0  0  0  0  0
   31.4376  -19.4015   35.2911 C   0  0  0  0  0  0  0  0  0  0  0  0
   29.9602  -19.6092   35.0659 C   0  0  0  0  0  0  0  0  0  0  0  0
   32.5607  -20.3216   36.1806 S   0  0  0  0  0  0  0  0  0  0  0  0
   41.4374  -22.0315   38.8798 C   0  0  0  0  0  0  0  0  0  0  0  0
   40.5404  -21.1415   39.5124 O   0  0  0  0  0  0  0  0  0  0  0  0
   38.8125  -18.8246   35.3737 N   0  0  0  0  0  0  0  0  0  0  0  0
   39.4270  -18.1035   35.7928 H   0  0  0  0  0  0  0  0  0  0  0  0
   39.1296  -19.3197   34.0286 C   0  0  0  0  0  0  0  0  0  0  0  0
   40.3931  -18.7850   33.4704 C   0  0  0  0  0  0  0  0  0  0  0  0
   41.5298  -19.7090   33.2981 C   0  0  0  0  0  0  0  0  0  0  0  0
   41.4346  -21.0296   33.7770 N   0  0  0  0  0  0  0  0  0  0  0  0
   41.7209  -22.0453   32.7824 C   0  0  0  0  0  0  0  0  0  0  0  0
   40.3801  -21.3708   34.6572 C   0  0  0  0  0  0  0  0  0  0  0  0
   39.0876  -20.8325   34.0730 C   0  0  0  0  0  0  0  0  0  0  0  0
   38.2837  -22.0992   40.9246 O   0  0  0  0  0  0  0  0  0  0  0  0
   37.9797  -21.4722   42.1552 C   0  0  0  0  0  0  0  0  0  0  0  0
   39.2539  -21.3888   42.9708 C   0  0  0  0  0  0  0  0  0  0  0  0
   40.0562  -20.1651   42.6378 C   0  0  0  0  0  0  0  0  0  0  0  0
   41.2559  -20.1210   43.4045 N   0  0  0  0  0  0  0  0  0  0  0  0
   41.8771  -21.4493   43.4143 C   0  0  0  0  0  0  0  0  0  0  0  0
   42.8270  -21.4542   42.2579 C   0  0  0  0  0  0  0  0  0  0  0  0
   43.1573  -20.0155   42.0055 C   0  0  0  0  0  0  0  0  0  0  0  0
   42.2704  -19.2262   42.9503 C   0  0  0  0  0  0  0  0  0  0  0  0
 17 18  1  0  0  0
 18  1  1  0  0  0
  1  2  2  0  0  0
  2  3  1  0  0  0
  3  4  2  0  0  0
  4 19  1  0  0  0
 19 21  1  0  0  0
 21 22  1  0  0  0
 22 23  1  0  0  0
 23 24  1  0  0  0
 24 25  1  0  0  0
 24 26  1  0  0  0
 26 27  1  0  0  0
  4  5  1  0  0  0
  5  6  2  0  0  0
  6  7  1  0  0  0
  7  8  2  0  0  0
  8  9  1  0  0  0
  9 10  2  0  0  0
 10 28  1  0  0  0
 28 29  1  0  0  0
 29 30  1  0  0  0
 30 31  1  0  0  0
 31 32  1  0  0  0
 32 33  1  0  0  0
 33 34  1  0  0  0
 34 35  1  0  0  0
 35 36  1  0  0  0
  6 11  1  0  0  0
 11 12  2  0  0  0
 12 13  1  0  0  0
 13 14  2  0  0  0
 14 15  1  0  0  0
 14 16  1  0  0  0
 10  1  1  0  0  0
 36 32  1  0  0  0
 16 11  1  0  0  0
  8  3  1  0  0  0
 27 21  1  0  0  0
 19 20  1  0  0  0
M  END
> <minimizedAffinity>
-5.16753

> <CNNscore>
0.4169627130

> <CNNaffinity>
5.8251070976

> <CNN_VS>
2.4288525581

> <CNNaffinity_variance>
0.2220607251

$$$$
[H]c1c(-c2nc3c([H])c(OC([H])([H])C([H])([H])C([H])([H])N4C([H])([H])C([H])([H])C([H])([H])C4([H])[H])c(OC([H])([H])[H])c([H])c3c(N([H])C3([H])C([H])([H])C([H])([H])N(C([H])([H])[H])C([H])([H])C3([H])[H])c2[H])sc(C([H])([H])[H])c1[H]


 36 40  0  0  0  0  0  0  0  0999 V2000
   38.7934  -21.2283   35.7843 C   0  0  0  0  0  0  0  0  0  0  0  0
   37.4850  -21.0079   36.1995 C   0  0  0  0  0  0  0  0  0  0  0  0
   37.0099  -19.7270   36.4217 C   0  0  0  0  0  0  0  0  0  0  0  0
   35.7222  -19.4594   36.8308 C   0  0  0  0  0  0  0  0  0  0  0  0
   35.3768  -18.1208   37.0137 C   0  0  0  0  0  0  0  0  0  0  0  0
   36.2794  -17.1303   36.7946 C   0  0  0  0  0  0  0  0  0  0  0  0
   37.5214  -17.4252   36.3980 N   0  0  0  0  0  0  0  0  0  0  0  0
   37.9234  -18.6874   36.2025 C   0  0  0  0  0  0  0  0  0  0  0  0
   39.2174  -18.9268   35.7905 C   0  0  0  0  0  0  0  0  0  0  0  0
   39.6691  -20.2073   35.5756 C   0  0  0  0  0  0  0  0  0  0  0  0
   35.8954  -15.7116   36.9921 C   0  0  0  0  0  0  0  0  0  0  0  0
   36.6689  -14.7107   37.5215 C   0  0  0  0  0  0  0  0  0  0  0  0
   36.1194  -13.4949   37.6075 C   0  0  0  0  0  0  0  0  0  0  0  0
   34.8323  -13.3513   37.1607 C   0  0  0  0  0  0  0  0  0  0  0  0
   34.0193  -12.0803   37.1622 C   0  0  0  0  0  0  0  0  0  0  0  0
   34.4310  -14.9201   36.6344 S   0  0  0  0  0  0  0  0  0  0  0  0
   39.9064  -23.2591   36.5649 C   0  0  0  0  0  0  0  0  0  0  0  0
   39.1828  -22.5404   35.5868 O   0  0  0  0  0  0  0  0  0  0  0  0
   34.8064  -20.5046   37.0649 N   0  0  0  0  0  0  0  0  0  0  0  0
   35.1382  -21.3824   37.5040 H   0  0  0  0  0  0  0  0  0  0  0  0
   33.3866  -20.3921   36.7097 C   0  0  0  0  0  0  0  0  0  0  0  0
   33.1358  -20.2683   35.2551 C   0  0  0  0  0  0  0  0  0  0  0  0
   32.4818  -21.3918   34.5583 C   0  0  0  0  0  0  0  0  0  0  0  0
   32.2276  -22.5903   35.2521 N   0  0  0  0  0  0  0  0  0  0  0  0
   30.8466  -23.0291   35.1958 C   0  0  0  0  0  0  0  0  0  0  0  0
   32.8471  -22.8073   36.5061 C   0  0  0  0  0  0  0  0  0  0  0  0
   32.6590  -21.5577   37.3456 C   0  0  0  0  0  0  0  0  0  0  0  0
   40.9849  -20.4018   35.1593 O   0  0  0  0  0  0  0  0  0  0  0  0
   41.3116  -20.4337   33.7837 C   0  0  0  0  0  0  0  0  0  0  0  0
   41.8583  -19.0749   33.3960 C   0  0  0  0  0  0  0  0  0  0  0  0
   42.2034  -18.2436   34.5968 C   0  0  0  0  0  0  0  0  0  0  0  0
   43.6042  -17.9912   34.6533 N   0  0  0  0  0  0  0  0  0  0  0  0
   43.8326  -16.5656   34.9092 C   0  0  0  0  0  0  0  0  0  0  0  0
   43.9299  -16.4375   36.3970 C   0  0  0  0  0  0  0  0  0  0  0  0
   44.3438  -17.7902   36.8885 C   0  0  0  0  0  0  0  0  0  0  0  0
   44.3368  -18.6845   35.6628 C   0  0  0  0  0  0  0  0  0  0  0  0
 17 18  1  0  0  0
 18  1  1  0  0  0
  1  2  2  0  0  0
  2  3  1  0  0  0
  3  4  2  0  0  0
  4 19  1  0  0  0
 19 21  1  0  0  0
 21 22  1  0  0  0
 22 23  1  0  0  0
 23 24  1  0  0  0
 24 25  1  0  0  0
 24 26  1  0  0  0
 26 27  1  0  0  0
  4  5  1  0  0  0
  5  6  2  0  0  0
  6  7  1  0  0  0
  7  8  2  0  0  0
  8  9  1  0  0  0
  9 10  2  0  0  0
 10 28  1  0  0  0
 28 29  1  0  0  0
 29 30  1  0  0  0
 30 31  1  0  0  0
 31 32  1  0  0  0
 32 33  1  0  0  0
 33 34  1  0  0  0
 34 35  1  0  0  0
 35 36  1  0  0  0
  6 11  1  0  0  0
 11 12  2  0  0  0
 12 13  1  0  0  0
 13 14  2  0  0  0
 14 15  1  0  0  0
 14 16  1  0  0  0
 10  1  1  0  0  0
 36 32  1  0  0  0
 16 11  1  0  0  0
  8  3  1  0  0  0
 27 21  1  0  0  0
 19 20  1  0  0  0
M  END
> <minimizedAffinity>
-6.31905

> <CNNscore>
0.3717821538

> <CNNaffinity>
6.3044557571

> <CNN_VS>
2.3438842297

> <CNNaffinity_variance>
0.0317647047

$$$$
[H]c1c(-c2nc3c([H])c(OC([H])([H])C([H])([H])C([H])([H])N4C([H])([H])C([H])([H])C([H])([H])C4([H])[H])c(OC([H])([H])[H])c([H])c3c(N([H])C3([H])C([H])([H])C([H])([H])N(C([H])([H])[H])C([H])([H])C3([H])[H])c2[H])sc(C([H])([H])[H])c1[H]


 36 40  0  0  0  0  0  0  0  0999 V2000
   39.1343  -21.0919   39.2725 C   0  0  0  0  0  0  0  0  0  0  0  0
   39.0809  -20.3826   38.0780 C   0  0  0  0  0  0  0  0  0  0  0  0
   37.8708  -20.0737   37.4815 C   0  0  0  0  0  0  0  0  0  0  0  0
   37.7679  -19.3718   36.3009 C   0  0  0  0  0  0  0  0  0  0  0  0
   36.4841  -19.1279   35.8141 C   0  0  0  0  0  0  0  0  0  0  0  0
   35.3879  -19.5680   36.4838 C   0  0  0  0  0  0  0  0  0  0  0  0
   35.5236  -20.2467   37.6274 N   0  0  0  0  0  0  0  0  0  0  0  0
   36.7245  -20.5177   38.1540 C   0  0  0  0  0  0  0  0  0  0  0  0
   36.7985  -21.2201   39.3384 C   0  0  0  0  0  0  0  0  0  0  0  0
   38.0113  -21.5165   39.9139 C   0  0  0  0  0  0  0  0  0  0  0  0
   34.0295  -19.2987   35.9535 C   0  0  0  0  0  0  0  0  0  0  0  0
   33.6458  -18.2543   35.1519 C   0  0  0  0  0  0  0  0  0  0  0  0
   32.3605  -18.2046   34.7872 C   0  0  0  0  0  0  0  0  0  0  0  0
   31.5363  -19.1988   35.2441 C   0  0  0  0  0  0  0  0  0  0  0  0
   30.0611  -19.3415   34.9607 C   0  0  0  0  0  0  0  0  0  0  0  0
   32.5838  -20.1718   36.1687 S   0  0  0  0  0  0  0  0  0  0  0  0
   41.4322  -20.4076   39.7453 C   0  0  0  0  0  0  0  0  0  0  0  0
   40.3863  -21.3564   39.7968 O   0  0  0  0  0  0  0  0  0  0  0  0
   38.9202  -18.9365   35.6162 N   0  0  0  0  0  0  0  0  0  0  0  0
   39.5826  -18.2970   36.0913 H   0  0  0  0  0  0  0  0  0  0  0  0
   39.2203  -19.3631   34.2441 C   0  0  0  0  0  0  0  0  0  0  0  0
   40.4876  -18.8176   33.7054 C   0  0  0  0  0  0  0  0  0  0  0  0
   41.6092  -19.7473   33.4748 C   0  0  0  0  0  0  0  0  0  0  0  0
   41.4978  -21.0902   33.8829 N   0  0  0  0  0  0  0  0  0  0  0  0
   41.7619  -22.0551   32.8331 C   0  0  0  0  0  0  0  0  0  0  0  0
   40.4446  -21.4629   34.7519 C   0  0  0  0  0  0  0  0  0  0  0  0
   39.1561  -20.8754   34.2077 C   0  0  0  0  0  0  0  0  0  0  0  0
   38.0380  -22.2284   41.1118 O   0  0  0  0  0  0  0  0  0  0  0  0
   36.8379  -22.5730   41.7759 C   0  0  0  0  0  0  0  0  0  0  0  0
   36.7168  -21.7071   43.0133 C   0  0  0  0  0  0  0  0  0  0  0  0
   35.2852  -21.4328   43.3703 C   0  0  0  0  0  0  0  0  0  0  0  0
   34.6005  -20.8170   42.2835 N   0  0  0  0  0  0  0  0  0  0  0  0
   33.1756  -21.1564   42.3501 C   0  0  0  0  0  0  0  0  0  0  0  0
   32.5398  -20.0568   43.1413 C   0  0  0  0  0  0  0  0  0  0  0  0
   33.4507  -18.8776   42.9907 C   0  0  0  0  0  0  0  0  0  0  0  0
   34.6532  -19.3924   42.2219 C   0  0  0  0  0  0  0  0  0  0  0  0
 17 18  1  0  0  0
 18  1  1  0  0  0
  1  2  2  0  0  0
  2  3  1  0  0  0
  3  4  2  0  0  0
  4 19  1  0  0  0
 19 21  1  0  0  0
 21 22  1  0  0  0
 22 23  1  0  0  0
 23 24  1  0  0  0
 24 25  1  0  0  0
 24 26  1  0  0  0
 26 27  1  0  0  0
  4  5  1  0  0  0
  5  6  2  0  0  0
  6  7  1  0  0  0
  7  8  2  0  0  0
  8  9  1  0  0  0
  9 10  2  0  0  0
 10 28  1  0  0  0
 28 29  1  0  0  0
 29 30  1  0  0  0
 30 31  1  0  0  0
 31 32  1  0  0  0
 32 33  1  0  0  0
 33 34  1  0  0  0
 34 35  1  0  0  0
 35 36  1  0  0  0
  6 11  1  0  0  0
 11 12  2  0  0  0
 12 13  1  0  0  0
 13 14  2  0  0  0
 14 15  1  0  0  0
 14 16  1  0  0  0
 10  1  1  0  0  0
 36 32  1  0  0  0
 16 11  1  0  0  0
  8  3  1  0  0  0
 27 21  1  0  0  0
 19 20  1  0  0  0
M  END
> <minimizedAffinity>
-5.22905

> <CNNscore>
0.3198584914

> <CNNaffinity>
5.7555456161

> <CNN_VS>
1.8409601450

> <CNNaffinity_variance>
0.3542467058

$$$$
[H]c1c(-c2nc3c([H])c(OC([H])([H])C([H])([H])C([H])([H])N4C([H])([H])C([H])([H])C([H])([H])C4([H])[H])c(OC([H])([H])[H])c([H])c3c(N([H])C3([H])C([H])([H])C([H])([H])N(C([H])([H])[H])C([H])([H])C3([H])[H])c2[H])sc(C([H])([H])[H])c1[H]


 36 40  0  0  0  0  0  0  0  0999 V2000
   35.8908  -19.2212   36.2607 C   0  0  0  0  0  0  0  0  0  0  0  0
   37.2724  -19.1505   36.3986 C   0  0  0  0  0  0  0  0  0  0  0  0
   37.9337  -19.8799   37.3714 C   0  0  0  0  0  0  0  0  0  0  0  0
   39.2997  -19.8441   37.5445 C   0  0  0  0  0  0  0  0  0  0  0  0
   39.8340  -20.6326   38.5629 C   0  0  0  0  0  0  0  0  0  0  0  0
   39.0326  -21.4003   39.3454 C   0  0  0  0  0  0  0  0  0  0  0  0
   37.7103  -21.4116   39.1503 N   0  0  0  0  0  0  0  0  0  0  0  0
   37.1276  -20.6800   38.1921 C   0  0  0  0  0  0  0  0  0  0  0  0
   35.7583  -20.7366   38.0392 C   0  0  0  0  0  0  0  0  0  0  0  0
   35.1213  -20.0036   37.0661 C   0  0  0  0  0  0  0  0  0  0  0  0
   39.6170  -22.2346   40.4231 C   0  0  0  0  0  0  0  0  0  0  0  0
   38.9493  -22.8346   41.4597 C   0  0  0  0  0  0  0  0  0  0  0  0
   39.6783  -23.5477   42.3244 C   0  0  0  0  0  0  0  0  0  0  0  0
   41.0283  -23.6188   42.1029 C   0  0  0  0  0  0  0  0  0  0  0  0
   42.0370  -24.3613   42.9443 C   0  0  0  0  0  0  0  0  0  0  0  0
   41.2361  -22.6869   40.6931 S   0  0  0  0  0  0  0  0  0  0  0  0
   35.7502  -18.5334   33.9199 C   0  0  0  0  0  0  0  0  0  0  0  0
   35.3140  -18.4583   35.2619 O   0  0  0  0  0  0  0  0  0  0  0  0
   40.1103  -19.0293   36.7289 N   0  0  0  0  0  0  0  0  0  0  0  0
   39.8461  -18.0391   36.5772 H   0  0  0  0  0  0  0  0  0  0  0  0
   41.3277  -19.5364   36.0842 C   0  0  0  0  0  0  0  0  0  0  0  0
   41.2806  -19.5164   34.6039 C   0  0  0  0  0  0  0  0  0  0  0  0
   42.1570  -18.5711   33.8873 C   0  0  0  0  0  0  0  0  0  0  0  0
   42.9156  -17.6341   34.6146 N   0  0  0  0  0  0  0  0  0  0  0  0
   44.3346  -17.6574   34.3166 C   0  0  0  0  0  0  0  0  0  0  0  0
   42.6209  -17.4191   35.9822 C   0  0  0  0  0  0  0  0  0  0  0  0
   42.5037  -18.7732   36.6561 C   0  0  0  0  0  0  0  0  0  0  0  0
   33.7355  -20.0920   36.9481 O   0  0  0  0  0  0  0  0  0  0  0  0
   33.1294  -21.2326   36.3721 C   0  0  0  0  0  0  0  0  0  0  0  0
   31.6334  -20.9982   36.3212 C   0  0  0  0  0  0  0  0  0  0  0  0
   30.8841  -21.9504   37.2067 C   0  0  0  0  0  0  0  0  0  0  0  0
   29.5563  -21.4895   37.4381 N   0  0  0  0  0  0  0  0  0  0  0  0
   28.9002  -21.2282   36.1530 C   0  0  0  0  0  0  0  0  0  0  0  0
   28.2046  -22.5034   35.7933 C   0  0  0  0  0  0  0  0  0  0  0  0
   27.9825  -23.2175   37.0908 C   0  0  0  0  0  0  0  0  0  0  0  0
   28.6865  -22.3770   38.1396 C   0  0  0  0  0  0  0  0  0  0  0  0
 17 18  1  0  0  0
 18  1  1  0  0  0
  1  2  2  0  0  0
  2  3  1  0  0  0
  3  4  2  0  0  0
  4 19  1  0  0  0
 19 21  1  0  0  0
 21 22  1  0  0  0
 22 23  1  0  0  0
 23 24  1  0  0  0
 24 25  1  0  0  0
 24 26  1  0  0  0
 26 27  1  0  0  0
  4  5  1  0  0  0
  5  6  2  0  0  0
  6  7  1  0  0  0
  7  8  2  0  0  0
  8  9  1  0  0  0
  9 10  2  0  0  0
 10 28  1  0  0  0
 28 29  1  0  0  0
 29 30  1  0  0  0
 30 31  1  0  0  0
 31 32  1  0  0  0
 32 33  1  0  0  0
 33 34  1  0  0  0
 34 35  1  0  0  0
 35 36  1  0  0  0
  6 11  1  0  0  0
 11 12  2  0  0  0
 12 13  1  0  0  0
 13 14  2  0  0  0
 14 15  1  0  0  0
 14 16  1  0  0  0
 10  1  1  0  0  0
 36 32  1  0  0  0
 16 11  1  0  0  0
  8  3  1  0  0  0
 27 21  1  0  0  0
 19 20  1  0  0  0
M  END
> <minimizedAffinity>
-4.88573

> <CNNscore>
0.3144496679

> <CNNaffinity>
5.5186800957

> <CNN_VS>
1.7353471518

> <CNNaffinity_variance>
0.4107135832

$$$$
[H]c1c(-c2nc3c([H])c(OC([H])([H])C([H])([H])C([H])([H])N4C([H])([H])C([H])([H])C([H])([H])C4([H])[H])c(OC([H])([H])[H])c([H])c3c(N([H])C3([H])C([H])([H])C([H])([H])N(C([H])([H])[H])C([H])([H])C3([H])[H])c2[H])sc(C([H])([H])[H])c1[H]


 36 40  0  0  0  0  0  0  0  0999 V2000
   39.3573  -19.2681   36.6193 C   0  0  0  0  0  0  0  0  0  0  0  0
   38.4784  -18.2062   36.4388 C   0  0  0  0  0  0  0  0  0  0  0  0
   37.1269  -18.4218   36.2325 C   0  0  0  0  0  0  0  0  0  0  0  0
   36.2184  -17.4024   36.0513 C   0  0  0  0  0  0  0  0  0  0  0  0
   34.8856  -17.7637   35.8564 C   0  0  0  0  0  0  0  0  0  0  0  0
   34.5097  -19.0684   35.8478 C   0  0  0  0  0  0  0  0  0  0  0  0
   35.4175  -20.0331   36.0266 N   0  0  0  0  0  0  0  0  0  0  0  0
   36.7144  -19.7608   36.2190 C   0  0  0  0  0  0  0  0  0  0  0  0
   37.6020  -20.8005   36.4002 C   0  0  0  0  0  0  0  0  0  0  0  0
   38.9409  -20.5640   36.6036 C   0  0  0  0  0  0  0  0  0  0  0  0
   33.0879  -19.4356   35.6410 C   0  0  0  0  0  0  0  0  0  0  0  0
   32.1800  -18.8058   34.8289 C   0  0  0  0  0  0  0  0  0  0  0  0
   30.9417  -19.3087   34.7920 C   0  0  0  0  0  0  0  0  0  0  0  0
   30.6843  -20.4086   35.5670 C   0  0  0  0  0  0  0  0  0  0  0  0
   29.3678  -21.1369   35.6808 C   0  0  0  0  0  0  0  0  0  0  0  0
   32.1810  -20.7050   36.3227 S   0  0  0  0  0  0  0  0  0  0  0  0
   41.5852  -18.7842   35.7394 C   0  0  0  0  0  0  0  0  0  0  0  0
   40.6906  -18.9601   36.8189 O   0  0  0  0  0  0  0  0  0  0  0  0
   36.6338  -16.0558   36.0509 N   0  0  0  0  0  0  0  0  0  0  0  0
   37.1763  -15.6915   35.2470 H   0  0  0  0  0  0  0  0  0  0  0  0
   36.3196  -15.1421   37.1559 C   0  0  0  0  0  0  0  0  0  0  0  0
   37.0882  -13.8762   37.1302 C   0  0  0  0  0  0  0  0  0  0  0  0
   36.3662  -12.6234   36.8389 C   0  0  0  0  0  0  0  0  0  0  0  0
   35.0075  -12.6700   36.4725 N   0  0  0  0  0  0  0  0  0  0  0  0
   34.1437  -11.8336   37.2832 C   0  0  0  0  0  0  0  0  0  0  0  0
   34.4309  -13.9119   36.1144 C   0  0  0  0  0  0  0  0  0  0  0  0
   34.8202  -14.9320   37.1676 C   0  0  0  0  0  0  0  0  0  0  0  0
   39.8014  -21.6457   36.7823 O   0  0  0  0  0  0  0  0  0  0  0  0
   39.8267  -22.3562   38.0048 C   0  0  0  0  0  0  0  0  0  0  0  0
   41.0367  -21.8979   38.7932 C   0  0  0  0  0  0  0  0  0  0  0  0
   40.6537  -21.0428   39.9655 C   0  0  0  0  0  0  0  0  0  0  0  0
   41.6161  -21.1533   41.0098 N   0  0  0  0  0  0  0  0  0  0  0  0
   42.9367  -20.7738   40.4977 C   0  0  0  0  0  0  0  0  0  0  0  0
   43.0665  -19.3090   40.7750 C   0  0  0  0  0  0  0  0  0  0  0  0
   42.1365  -19.0341   41.9162 C   0  0  0  0  0  0  0  0  0  0  0  0
   41.4029  -20.3393   42.1622 C   0  0  0  0  0  0  0  0  0  0  0  0
 17 18  1  0  0  0
 18  1  1  0  0  0
  1  2  2  0  0  0
  2  3  1  0  0  0
  3  4  2  0  0  0
  4 19  1  0  0  0
 19 21  1  0  0  0
 21 22  1  0  0  0
 22 23  1  0  0  0
 23 24  1  0  0  0
 24 25  1  0  0  0
 24 26  1  0  0  0
 26 27  1  0  0  0
  4  5  1  0  0  0
  5  6  2  0  0  0
  6  7  1  0  0  0
  7  8  2  0  0  0
  8  9  1  0  0  0
  9 10  2  0  0  0
 10 28  1  0  0  0
 28 29  1  0  0  0
 29 30  1  0  0  0
 30 31  1  0  0  0
 31 32  1  0  0  0
 32 33  1  0  0  0
 33 34  1  0  0  0
 34 35  1  0  0  0
 35 36  1  0  0  0
  6 11  1  0  0  0
 11 12  2  0  0  0
 12 13  1  0  0  0
 13 14  2  0  0  0
 14 15  1  0  0  0
 14 16  1  0  0  0
 10  1  1  0  0  0
 36 32  1  0  0  0
 16 11  1  0  0  0
  8  3  1  0  0  0
 27 21  1  0  0  0
 19 20  1  0  0  0
M  END
> <minimizedAffinity>
-6.36501

> <CNNscore>
0.3043164015

> <CNNaffinity>
6.3705596924

> <CNN_VS>
1.9386657476

> <CNNaffinity_variance>
0.1057424098

$$$$
[H]c1c(-c2nc3c([H])c(OC([H])([H])C([H])([H])C([H])([H])N4C([H])([H])C([H])([H])C([H])([H])C4([H])[H])c(OC([H])([H])[H])c([H])c3c(N([H])C3([H])C([H])([H])C([H])([H])N(C([H])([H])[H])C([H])([H])C3([H])[H])c2[H])sc(C([H])([H])[H])c1[H]


 36 40  0  0  0  0  0  0  0  0999 V2000
   35.9499  -22.3452   37.3919 C   0  0  0  0  0  0  0  0  0  0  0  0
   37.0229  -21.5452   37.0158 C   0  0  0  0  0  0  0  0  0  0  0  0
   36.9149  -20.1655   36.9934 C   0  0  0  0  0  0  0  0  0  0  0  0
   37.9501  -19.3325   36.6306 C   0  0  0  0  0  0  0  0  0  0  0  0
   37.7028  -17.9604   36.6559 C   0  0  0  0  0  0  0  0  0  0  0  0
   36.4891  -17.4760   37.0248 C   0  0  0  0  0  0  0  0  0  0  0  0
   35.5059  -18.3127   37.3711 N   0  0  0  0  0  0  0  0  0  0  0  0
   35.6710  -19.6415   37.3700 C   0  0  0  0  0  0  0  0  0  0  0  0
   34.6187  -20.4522   37.7401 C   0  0  0  0  0  0  0  0  0  0  0  0
   34.7475  -21.8208   37.7552 C   0  0  0  0  0  0  0  0  0  0  0  0
   36.2431  -16.0138   37.0481 C   0  0  0  0  0  0  0  0  0  0  0  0
   37.0589  -15.0455   37.5745 C   0  0  0  0  0  0  0  0  0  0  0  0
   36.6393  -13.7791   37.4860 C   0  0  0  0  0  0  0  0  0  0  0  0
   35.4321  -13.5556   36.8784 C   0  0  0  0  0  0  0  0  0  0  0  0
   34.7674  -12.2171   36.6700 C   0  0  0  0  0  0  0  0  0  0  0  0
   34.9217  -15.1224   36.4498 S   0  0  0  0  0  0  0  0  0  0  0  0
   37.2787  -24.3015   36.7757 C   0  0  0  0  0  0  0  0  0  0  0  0
   36.1472  -23.7139   37.3851 O   0  0  0  0  0  0  0  0  0  0  0  0
   39.1973  -19.8585   36.2384 N   0  0  0  0  0  0  0  0  0  0  0  0
   39.8181  -20.2807   36.9524 H   0  0  0  0  0  0  0  0  0  0  0  0
   39.6508  -19.8329   34.8426 C   0  0  0  0  0  0  0  0  0  0  0  0
   41.0744  -19.4594   34.6766 C   0  0  0  0  0  0  0  0  0  0  0  0
   42.0206  -20.4916   34.2131 C   0  0  0  0  0  0  0  0  0  0  0  0
   41.5835  -21.8213   34.0614 N   0  0  0  0  0  0  0  0  0  0  0  0
   41.8418  -22.3868   32.7513 C   0  0  0  0  0  0  0  0  0  0  0  0
   40.3405  -22.2075   34.6172 C   0  0  0  0  0  0  0  0  0  0  0  0
   39.3064  -21.1703   34.2219 C   0  0  0  0  0  0  0  0  0  0  0  0
   33.6571  -22.6007   38.1364 O   0  0  0  0  0  0  0  0  0  0  0  0
   32.3381  -22.1019   38.0305 C   0  0  0  0  0  0  0  0  0  0  0  0
   31.9426  -22.1178   36.5680 C   0  0  0  0  0  0  0  0  0  0  0  0
   31.2437  -20.8540   36.1602 C   0  0  0  0  0  0  0  0  0  0  0  0
   31.3730  -20.6323   34.7590 N   0  0  0  0  0  0  0  0  0  0  0  0
   31.1974  -19.2049   34.4731 C   0  0  0  0  0  0  0  0  0  0  0  0
   32.5733  -18.6177   34.5127 C   0  0  0  0  0  0  0  0  0  0  0  0
   33.5027  -19.7570   34.2283 C   0  0  0  0  0  0  0  0  0  0  0  0
   32.6219  -20.9911   34.1693 C   0  0  0  0  0  0  0  0  0  0  0  0
 17 18  1  0  0  0
 18  1  1  0  0  0
  1  2  2  0  0  0
  2  3  1  0  0  0
  3  4  2  0  0  0
  4 19  1  0  0  0
 19 21  1  0  0  0
 21 22  1  0  0  0
 22 23  1  0  0  0
 23 24  1  0  0  0
 24 25  1  0  0  0
 24 26  1  0  0  0
 26 27  1  0  0  0
  4  5  1  0  0  0
  5  6  2  0  0  0
  6  7  1  0  0  0
  7  8  2  0  0  0
  8  9  1  0  0  0
  9 10  2  0  0  0
 10 28  1  0  0  0
 28 29  1  0  0  0
 29 30  1  0  0  0
 30 31  1  0  0  0
 31 32  1  0  0  0
 32 33  1  0  0  0
 33 34  1  0  0  0
 34 35  1  0  0  0
 35 36  1  0  0  0
  6 11  1  0  0  0
 11 12  2  0  0  0
 12 13  1  0  0  0
 13 14  2  0  0  0
 14 15  1  0  0  0
 14 16  1  0  0  0
 10  1  1  0  0  0
 36 32  1  0  0  0
 16 11  1  0  0  0
  8  3  1  0  0  0
 27 21  1  0  0  0
 19 20  1  0  0  0
M  END
> <minimizedAffinity>
-6.35276

> <CNNscore>
0.2991780937

> <CNNaffinity>
6.1492762566

> <CNN_VS>
1.8397287130

> <CNNaffinity_variance>
0.4930829108

$$$$
[H]c1c(-c2nc3c([H])c(OC([H])([H])C([H])([H])C([H])([H])N4C([H])([H])C([H])([H])C([H])([H])C4([H])[H])c(OC([H])([H])[H])c([H])c3c(N([H])C3([H])C([H])([H])C([H])([H])N(C([H])([H])[H])C([H])([H])C3([H])[H])c2[H])sc(C([H])([H])[H])c1[H]


 36 40  0  0  0  0  0  0  0  0999 V2000
   39.2692  -21.3476   36.0712 C   0  0  0  0  0  0  0  0  0  0  0  0
   37.8969  -21.1270   36.1026 C   0  0  0  0  0  0  0  0  0  0  0  0
   37.3793  -19.8588   36.3006 C   0  0  0  0  0  0  0  0  0  0  0  0
   36.0286  -19.5913   36.3370 C   0  0  0  0  0  0  0  0  0  0  0  0
   35.6466  -18.2659   36.5415 C   0  0  0  0  0  0  0  0  0  0  0  0
   36.5752  -17.2873   36.6968 C   0  0  0  0  0  0  0  0  0  0  0  0
   37.8784  -17.5817   36.6561 N   0  0  0  0  0  0  0  0  0  0  0  0
   38.3184  -18.8317   36.4638 C   0  0  0  0  0  0  0  0  0  0  0  0
   39.6760  -19.0709   36.4293 C   0  0  0  0  0  0  0  0  0  0  0  0
   40.1690  -20.3389   36.2314 C   0  0  0  0  0  0  0  0  0  0  0  0
   36.1522  -15.8824   36.9117 C   0  0  0  0  0  0  0  0  0  0  0  0
   36.8678  -14.8873   37.5266 C   0  0  0  0  0  0  0  0  0  0  0  0
   36.2912  -13.6840   37.6122 C   0  0  0  0  0  0  0  0  0  0  0  0
   35.0366  -13.5464   37.0797 C   0  0  0  0  0  0  0  0  0  0  0  0
   34.2022  -12.2894   37.0640 C   0  0  0  0  0  0  0  0  0  0  0  0
   34.7024  -15.1031   36.4762 S   0  0  0  0  0  0  0  0  0  0  0  0
   39.9657  -23.5206   36.9459 C   0  0  0  0  0  0  0  0  0  0  0  0
   39.6976  -22.6467   35.8683 O   0  0  0  0  0  0  0  0  0  0  0  0
   35.0829  -20.6253   36.1867 N   0  0  0  0  0  0  0  0  0  0  0  0
   35.4055  -21.6095   36.1616 H   0  0  0  0  0  0  0  0  0  0  0  0
   33.6449  -20.3561   36.0673 C   0  0  0  0  0  0  0  0  0  0  0  0
   33.1421  -20.3659   34.6741 C   0  0  0  0  0  0  0  0  0  0  0  0
   32.2418  -21.4589   34.2614 C   0  0  0  0  0  0  0  0  0  0  0  0
   31.9834  -22.5223   35.1473 N   0  0  0  0  0  0  0  0  0  0  0  0
   30.5745  -22.7664   35.3891 C   0  0  0  0  0  0  0  0  0  0  0  0
   32.7971  -22.6788   36.2947 C   0  0  0  0  0  0  0  0  0  0  0  0
   32.9178  -21.3273   36.9731 C   0  0  0  0  0  0  0  0  0  0  0  0
   41.5488  -20.5337   36.2037 O   0  0  0  0  0  0  0  0  0  0  0  0
   42.4369  -19.4442   36.3597 C   0  0  0  0  0  0  0  0  0  0  0  0
   42.5878  -19.1658   37.8414 C   0  0  0  0  0  0  0  0  0  0  0  0
   43.3885  -20.2288   38.5350 C   0  0  0  0  0  0  0  0  0  0  0  0
   44.2230  -19.6605   39.5399 N   0  0  0  0  0  0  0  0  0  0  0  0
   43.5213  -18.5446   40.1824 C   0  0  0  0  0  0  0  0  0  0  0  0
   42.8144  -19.1417   41.3585 C   0  0  0  0  0  0  0  0  0  0  0  0
   43.5770  -20.3862   41.6939 C   0  0  0  0  0  0  0  0  0  0  0  0
   44.6215  -20.5258   40.6022 C   0  0  0  0  0  0  0  0  0  0  0  0
 17 18  1  0  0  0
 18  1  1  0  0  0
  1  2  2  0  0  0
  2  3  1  0  0  0
  3  4  2  0  0  0
  4 19  1  0  0  0
 19 21  1  0  0  0
 21 22  1  0  0  0
 22 23  1  0  0  0
 23 24  1  0  0  0
 24 25  1  0  0  0
 24 26  1  0  0  0
 26 27  1  0  0  0
  4  5  1  0  0  0
  5  6  2  0  0  0
  6  7  1  0  0  0
  7  8  2  0  0  0
  8  9  1  0  0  0
  9 10  2  0  0  0
 10 28  1  0  0  0
 28 29  1  0  0  0
 29 30  1  0  0  0
 30 31  1  0  0  0
 31 32  1  0  0  0
 32 33  1  0  0  0
 33 34  1  0  0  0
 34 35  1  0  0  0
 35 36  1  0  0  0
  6 11  1  0  0  0
 11 12  2  0  0  0
 12 13  1  0  0  0
 13 14  2  0  0  0
 14 15  1  0  0  0
 14 16  1  0  0  0
 10  1  1  0  0  0
 36 32  1  0  0  0
 16 11  1  0  0  0
  8  3  1  0  0  0
 27 21  1  0  0  0
 19 20  1  0  0  0
M  END
> <minimizedAffinity>
-6.37927

> <CNNscore>
0.2967327833

> <CNNaffinity>
6.0424132347

> <CNN_VS>
1.7929821014

> <CNNaffinity_variance>
0.1795446575

$$$$
[H]c1c(OC([H])([H])C([H])([H])C([H])([H])N2C([H])([H])C([H])([H])C([H])([H])C2([H])[H])c(OC([H])([H])[H])c([H])c2c(N([H])C3([H])C([H])([H])C([H])([H])N(C([H])(C([H])([H])[H])C([H])([H])[H])C([H])([H])C3([H])[H])nc(N3C([H])([H])C([H])([H])N(C([H])([H])[H])C([H])([H])C([H])([H])C3([H])[H])nc12


 40 44  0  0  0  0  0  0  0  0999 V2000
   36.0881  -13.9274   36.6088 C   0  0  0  0  0  0  0  0  0  0  0  0
   36.4760  -15.2052   36.3180 C   0  0  0  0  0  0  0  0  0  0  0  0
   35.5991  -16.2142   35.9845 C   0  0  0  0  0  0  0  0  0  0  0  0
   35.9966  -17.4902   35.6954 C   0  0  0  0  0  0  0  0  0  0  0  0
   35.0385  -18.4036   35.3807 N   0  0  0  0  0  0  0  0  0  0  0  0
   33.7343  -18.0797   35.3500 C   0  0  0  0  0  0  0  0  0  0  0  0
   33.3650  -16.8212   35.6366 N   0  0  0  0  0  0  0  0  0  0  0  0
   34.2451  -15.8584   35.9569 C   0  0  0  0  0  0  0  0  0  0  0  0
   33.8030  -14.5899   36.2409 C   0  0  0  0  0  0  0  0  0  0  0  0
   34.7125  -13.6161   36.5669 C   0  0  0  0  0  0  0  0  0  0  0  0
   32.7366  -19.0569   35.0250 N   0  0  0  0  0  0  0  0  0  0  0  0
   31.4018  -18.7274   35.3997 C   0  0  0  0  0  0  0  0  0  0  0  0
   30.3547  -19.5726   34.7598 C   0  0  0  0  0  0  0  0  0  0  0  0
   30.5514  -21.0360   34.8810 C   0  0  0  0  0  0  0  0  0  0  0  0
   31.5862  -21.4933   35.7021 N   0  0  0  0  0  0  0  0  0  0  0  0
   31.3219  -21.8278   37.0438 C   0  0  0  0  0  0  0  0  0  0  0  0
   32.9221  -21.4085   35.2681 C   0  0  0  0  0  0  0  0  0  0  0  0
   33.2345  -20.2261   34.3712 C   0  0  0  0  0  0  0  0  0  0  0  0
   38.2956  -13.2639   37.4538 C   0  0  0  0  0  0  0  0  0  0  0  0
   37.0208  -12.9612   36.9362 O   0  0  0  0  0  0  0  0  0  0  0  0
   37.3351  -17.8778   35.7180 N   0  0  0  0  0  0  0  0  0  0  0  0
   38.0609  -17.3130   36.1969 H   0  0  0  0  0  0  0  0  0  0  0  0
   37.8202  -19.0934   35.0768 C   0  0  0  0  0  0  0  0  0  0  0  0
   38.3716  -18.6970   33.7295 C   0  0  0  0  0  0  0  0  0  0  0  0
   39.6721  -19.3924   33.4079 C   0  0  0  0  0  0  0  0  0  0  0  0
   40.6431  -19.2823   34.4107 N   0  0  0  0  0  0  0  0  0  0  0  0
   40.1557  -18.9655   35.6880 C   0  0  0  0  0  0  0  0  0  0  0  0
   38.8609  -19.7186   35.9548 C   0  0  0  0  0  0  0  0  0  0  0  0
   41.8777  -19.9359   34.2701 C   0  0  0  0  0  0  0  0  0  0  0  0
   42.7174  -19.9571   35.5256 C   0  0  0  0  0  0  0  0  0  0  0  0
   41.7774  -21.3334   33.6920 C   0  0  0  0  0  0  0  0  0  0  0  0
   34.4401  -12.3086   36.8676 O   0  0  0  0  0  0  0  0  0  0  0  0
   33.7414  -11.8163   37.9314 C   0  0  0  0  0  0  0  0  0  0  0  0
   32.3554  -11.3952   37.5694 C   0  0  0  0  0  0  0  0  0  0  0  0
   31.2990  -12.3209   38.0640 C   0  0  0  0  0  0  0  0  0  0  0  0
   29.9572  -12.0060   37.9863 N   0  0  0  0  0  0  0  0  0  0  0  0
   29.4125  -10.7715   37.6683 C   0  0  0  0  0  0  0  0  0  0  0  0
   28.4111  -10.3676   38.7371 C   0  0  0  0  0  0  0  0  0  0  0  0
   28.4120  -11.5140   39.7039 C   0  0  0  0  0  0  0  0  0  0  0  0
   29.1104  -12.6499   38.9830 C   0  0  0  0  0  0  0  0  0  0  0  0
 19 20  1  0  0  0
 20  1  1  0  0  0
  1  2  2  0  0  0
  2  3  1  0  0  0
  3  4  2  0  0  0
  4 21  1  0  0  0
 21 23  1  0  0  0
 23 24  1  0  0  0
 24 25  1  0  0  0
 25 26  1  0  0  0
 26 27  1  0  0  0
 27 28  1  0  0  0
 26 29  1  0  0  0
 29 30  1  0  0  0
 29 31  1  0  0  0
  4  5  1  0  0  0
  5  6  2  0  0  0
  6  7  1  0  0  0
  7  8  2  0  0  0
  8  9  1  0  0  0
  9 10  2  0  0  0
 10 32  1  0  0  0
 32 33  1  0  0  0
 33 34  1  0  0  0
 34 35  1  0  0  0
 35 36  1  0  0  0
 36 37  1  0  0  0
 37 38  1  0  0  0
 38 39  1  0  0  0
 39 40  1  0  0  0
  6 11  1  0  0  0
 11 12  1  0  0  0
 12 13  1  0  0  0
 13 14  1  0  0  0
 14 15  1  0  0  0
 15 16  1  0  0  0
 15 17  1  0  0  0
 17 18  1  0  0  0
 10  1  1  0  0  0
 40 36  1  0  0  0
 18 11  1  0  0  0
  8  3  1  0  0  0
 28 23  1  0  0  0
 21 22  1  0  0  0
M  END
> <minimizedAffinity>
-8.34096

> <CNNscore>
0.7023555040

> <CNNaffinity>
7.5195250511

> <CNN_VS>
5.2813796997

> <CNNaffinity_variance>
0.0793073997

$$$$
[H]c1c(OC([H])([H])C([H])([H])C([H])([H])N2C([H])([H])C([H])([H])C([H])([H])C2([H])[H])c(OC([H])([H])[H])c([H])c2c(N([H])C3([H])C([H])([H])C([H])([H])N(C([H])(C([H])([H])[H])C([H])([H])[H])C([H])([H])C3([H])[H])nc(N3C([H])([H])C([H])([H])N(C([H])([H])[H])C([H])([H])C([H])([H])C3([H])[H])nc12


 40 44  0  0  0  0  0  0  0  0999 V2000
   36.0828  -14.1850   36.6711 C   0  0  0  0  0  0  0  0  0  0  0  0
   36.4197  -15.5095   36.6768 C   0  0  0  0  0  0  0  0  0  0  0  0
   35.5485  -16.5223   36.3400 C   0  0  0  0  0  0  0  0  0  0  0  0
   35.8946  -17.8451   36.3490 C   0  0  0  0  0  0  0  0  0  0  0  0
   34.9478  -18.7572   35.9983 N   0  0  0  0  0  0  0  0  0  0  0  0
   33.7032  -18.3874   35.6502 C   0  0  0  0  0  0  0  0  0  0  0  0
   33.3839  -17.0835   35.6473 N   0  0  0  0  0  0  0  0  0  0  0  0
   34.2571  -16.1186   35.9795 C   0  0  0  0  0  0  0  0  0  0  0  0
   33.8679  -14.8020   35.9576 C   0  0  0  0  0  0  0  0  0  0  0  0
   34.7696  -13.8266   36.2996 C   0  0  0  0  0  0  0  0  0  0  0  0
   32.7147  -19.3624   35.2917 N   0  0  0  0  0  0  0  0  0  0  0  0
   31.3672  -19.0233   35.6081 C   0  0  0  0  0  0  0  0  0  0  0  0
   30.3431  -19.8685   34.9320 C   0  0  0  0  0  0  0  0  0  0  0  0
   30.5269  -21.3317   35.0727 C   0  0  0  0  0  0  0  0  0  0  0  0
   31.5244  -21.7875   35.9396 N   0  0  0  0  0  0  0  0  0  0  0  0
   31.2029  -22.1099   37.2718 C   0  0  0  0  0  0  0  0  0  0  0  0
   32.8776  -21.7128   35.5608 C   0  0  0  0  0  0  0  0  0  0  0  0
   33.2331  -20.5392   34.6684 C   0  0  0  0  0  0  0  0  0  0  0  0
   38.1983  -13.5044   37.7147 C   0  0  0  0  0  0  0  0  0  0  0  0
   37.0064  -13.2177   37.0204 O   0  0  0  0  0  0  0  0  0  0  0  0
   37.1693  -18.2804   36.7066 N   0  0  0  0  0  0  0  0  0  0  0  0
   37.6848  -17.8677   37.5061 H   0  0  0  0  0  0  0  0  0  0  0  0
   37.8757  -19.3376   35.9944 C   0  0  0  0  0  0  0  0  0  0  0  0
   38.3413  -18.7567   34.6820 C   0  0  0  0  0  0  0  0  0  0  0  0
   39.7499  -19.1708   34.3318 C   0  0  0  0  0  0  0  0  0  0  0  0
   40.6829  -18.9449   35.3511 N   0  0  0  0  0  0  0  0  0  0  0  0
   40.1450  -18.8104   36.6402 C   0  0  0  0  0  0  0  0  0  0  0  0
   39.0166  -19.8107   36.8426 C   0  0  0  0  0  0  0  0  0  0  0  0
   42.0190  -19.3424   35.1834 C   0  0  0  0  0  0  0  0  0  0  0  0
   42.8280  -18.4413   34.2804 C   0  0  0  0  0  0  0  0  0  0  0  0
   42.7643  -19.5760   36.4823 C   0  0  0  0  0  0  0  0  0  0  0  0
   34.5462  -12.4761   36.3221 O   0  0  0  0  0  0  0  0  0  0  0  0
   34.0536  -11.7202   37.3459 C   0  0  0  0  0  0  0  0  0  0  0  0
   32.9331  -12.3881   38.0722 C   0  0  0  0  0  0  0  0  0  0  0  0
   31.5887  -12.0890   37.5061 C   0  0  0  0  0  0  0  0  0  0  0  0
   30.5224  -11.7308   38.3063 N   0  0  0  0  0  0  0  0  0  0  0  0
   29.7634  -12.5746   39.1025 C   0  0  0  0  0  0  0  0  0  0  0  0
   28.2898  -12.3814   38.7868 C   0  0  0  0  0  0  0  0  0  0  0  0
   28.2688  -11.3132   37.7345 C   0  0  0  0  0  0  0  0  0  0  0  0
   29.6538  -10.6974   37.7562 C   0  0  0  0  0  0  0  0  0  0  0  0
 19 20  1  0  0  0
 20  1  1  0  0  0
  1  2  2  0  0  0
  2  3  1  0  0  0
  3  4  2  0  0  0
  4 21  1  0  0  0
 21 23  1  0  0  0
 23 24  1  0  0  0
 24 25  1  0  0  0
 25 26  1  0  0  0
 26 27  1  0  0  0
 27 28  1  0  0  0
 26 29  1  0  0  0
 29 30  1  0  0  0
 29 31  1  0  0  0
  4  5  1  0  0  0
  5  6  2  0  0  0
  6  7  1  0  0  0
  7  8  2  0  0  0
  8  9  1  0  0  0
  9 10  2  0  0  0
 10 32  1  0  0  0
 32 33  1  0  0  0
 33 34  1  0  0  0
 34 35  1  0  0  0
 35 36  1  0  0  0
 36 37  1  0  0  0
 37 38  1  0  0  0
 38 39  1  0  0  0
 39 40  1  0  0  0
  6 11  1  0  0  0
 11 12  1  0  0  0
 12 13  1  0  0  0
 13 14  1  0  0  0
 14 15  1  0  0  0
 15 16  1  0  0  0
 15 17  1  0  0  0
 17 18  1  0  0  0
 10  1  1  0  0  0
 40 36  1  0  0  0
 18 11  1  0  0  0
  8  3  1  0  0  0
 28 23  1  0  0  0
 21 22  1  0  0  0
M  END
> <minimizedAffinity>
-8.49414

> <CNNscore>
0.5893443823

> <CNNaffinity>
7.2698884010

> <CNN_VS>
4.2844676971

> <CNNaffinity_variance>
0.1185944825

$$$$
[H]c1c(OC([H])([H])C([H])([H])C([H])([H])N2C([H])([H])C([H])([H])C([H])([H])C2([H])[H])c(OC([H])([H])[H])c([H])c2c(N([H])C3([H])C([H])([H])C([H])([H])N(C([H])(C([H])([H])[H])C([H])([H])[H])C([H])([H])C3([H])[H])nc(N3C([H])([H])C([H])([H])N(C([H])([H])[H])C([H])([H])C([H])([H])C3([H])[H])nc12


 40 44  0  0  0  0  0  0  0  0999 V2000
   36.0700  -13.9315   36.5342 C   0  0  0  0  0  0  0  0  0  0  0  0
   36.4653  -15.2085   36.2498 C   0  0  0  0  0  0  0  0  0  0  0  0
   35.5944  -16.2236   35.9192 C   0  0  0  0  0  0  0  0  0  0  0  0
   35.9993  -17.4987   35.6366 C   0  0  0  0  0  0  0  0  0  0  0  0
   35.0468  -18.4187   35.3242 N   0  0  0  0  0  0  0  0  0  0  0  0
   33.7409  -18.1019   35.2895 C   0  0  0  0  0  0  0  0  0  0  0  0
   33.3643  -16.8441   35.5698 N   0  0  0  0  0  0  0  0  0  0  0  0
   34.2386  -15.8752   35.8874 C   0  0  0  0  0  0  0  0  0  0  0  0
   33.7892  -14.6078   36.1649 C   0  0  0  0  0  0  0  0  0  0  0  0
   34.6928  -13.6277   36.4882 C   0  0  0  0  0  0  0  0  0  0  0  0
   32.7491  -19.0859   34.9670 N   0  0  0  0  0  0  0  0  0  0  0  0
   31.4078  -18.7490   35.3106 C   0  0  0  0  0  0  0  0  0  0  0  0
   30.3723  -19.6076   34.6696 C   0  0  0  0  0  0  0  0  0  0  0  0
   30.5665  -21.0681   34.8248 C   0  0  0  0  0  0  0  0  0  0  0  0
   31.5863  -21.5080   35.6739 N   0  0  0  0  0  0  0  0  0  0  0  0
   31.2977  -21.8145   37.0173 C   0  0  0  0  0  0  0  0  0  0  0  0
   32.9299  -21.4319   35.2624 C   0  0  0  0  0  0  0  0  0  0  0  0
   33.2585  -20.2684   34.3468 C   0  0  0  0  0  0  0  0  0  0  0  0
   38.2475  -13.2484   37.4394 C   0  0  0  0  0  0  0  0  0  0  0  0
   36.9969  -12.9588   36.8590 O   0  0  0  0  0  0  0  0  0  0  0  0
   37.3399  -17.8791   35.6635 N   0  0  0  0  0  0  0  0  0  0  0  0
   37.9930  -17.6386   34.8950 H   0  0  0  0  0  0  0  0  0  0  0  0
   37.9274  -18.6385   36.7599 C   0  0  0  0  0  0  0  0  0  0  0  0
   36.7979  -19.3449   37.4682 C   0  0  0  0  0  0  0  0  0  0  0  0
   37.1419  -20.7688   37.8320 C   0  0  0  0  0  0  0  0  0  0  0  0
   37.6314  -21.5300   36.7636 N   0  0  0  0  0  0  0  0  0  0  0  0
   38.1447  -20.7931   35.6852 C   0  0  0  0  0  0  0  0  0  0  0  0
   38.9327  -19.5967   36.1977 C   0  0  0  0  0  0  0  0  0  0  0  0
   38.0507  -22.8531   36.9756 C   0  0  0  0  0  0  0  0  0  0  0  0
   39.5490  -23.0254   37.0601 C   0  0  0  0  0  0  0  0  0  0  0  0
   37.3851  -23.5331   38.1552 C   0  0  0  0  0  0  0  0  0  0  0  0
   34.4129  -12.3204   36.7825 O   0  0  0  0  0  0  0  0  0  0  0  0
   33.7266  -11.8257   37.8533 C   0  0  0  0  0  0  0  0  0  0  0  0
   32.5207  -12.6376   38.1938 C   0  0  0  0  0  0  0  0  0  0  0  0
   31.2548  -12.0994   37.6233 C   0  0  0  0  0  0  0  0  0  0  0  0
   30.1741  -11.7767   38.4193 N   0  0  0  0  0  0  0  0  0  0  0  0
   29.4311  -12.6476   39.2012 C   0  0  0  0  0  0  0  0  0  0  0  0
   27.9554  -12.4884   38.8767 C   0  0  0  0  0  0  0  0  0  0  0  0
   27.9148  -11.4102   37.8352 C   0  0  0  0  0  0  0  0  0  0  0  0
   29.2836  -10.7599   37.8735 C   0  0  0  0  0  0  0  0  0  0  0  0
 19 20  1  0  0  0
 20  1  1  0  0  0
  1  2  2  0  0  0
  2  3  1  0  0  0
  3  4  2  0  0  0
  4 21  1  0  0  0
 21 23  1  0  0  0
 23 24  1  0  0  0
 24 25  1  0  0  0
 25 26  1  0  0  0
 26 27  1  0  0  0
 27 28  1  0  0  0
 26 29  1  0  0  0
 29 30  1  0  0  0
 29 31  1  0  0  0
  4  5  1  0  0  0
  5  6  2  0  0  0
  6  7  1  0  0  0
  7  8  2  0  0  0
  8  9  1  0  0  0
  9 10  2  0  0  0
 10 32  1  0  0  0
 32 33  1  0  0  0
 33 34  1  0  0  0
 34 35  1  0  0  0
 35 36  1  0  0  0
 36 37  1  0  0  0
 37 38  1  0  0  0
 38 39  1  0  0  0
 39 40  1  0  0  0
  6 11  1  0  0  0
 11 12  1  0  0  0
 12 13  1  0  0  0
 13 14  1  0  0  0
 14 15  1  0  0  0
 15 16  1  0  0  0
 15 17  1  0  0  0
 17 18  1  0  0  0
 10  1  1  0  0  0
 40 36  1  0  0  0
 18 11  1  0  0  0
  8  3  1  0  0  0
 28 23  1  0  0  0
 21 22  1  0  0  0
M  END
> <minimizedAffinity>
-8.05097

> <CNNscore>
0.5050225854

> <CNNaffinity>
7.0074677467

> <CNN_VS>
3.5389294624

> <CNNaffinity_variance>
0.2414697856

$$$$
[H]c1c(OC([H])([H])C([H])([H])C([H])([H])N2C([H])([H])C([H])([H])C([H])([H])C2([H])[H])c(OC([H])([H])[H])c([H])c2c(N([H])C3([H])C([H])([H])C([H])([H])N(C([H])(C([H])([H])[H])C([H])([H])[H])C([H])([H])C3([H])[H])nc(N3C([H])([H])C([H])([H])N(C([H])([H])[H])C([H])([H])C([H])([H])C3([H])[H])nc12


 40 44  0  0  0  0  0  0  0  0999 V2000
   35.6741  -14.4125   36.2284 C   0  0  0  0  0  0  0  0  0  0  0  0
   36.3519  -15.5662   35.9505 C   0  0  0  0  0  0  0  0  0  0  0  0
   35.7437  -16.7927   35.7950 C   0  0  0  0  0  0  0  0  0  0  0  0
   36.4304  -17.9421   35.5174 C   0  0  0  0  0  0  0  0  0  0  0  0
   35.7214  -19.0961   35.3871 N   0  0  0  0  0  0  0  0  0  0  0  0
   34.3845  -19.1249   35.5241 C   0  0  0  0  0  0  0  0  0  0  0  0
   33.7292  -17.9852   35.7961 N   0  0  0  0  0  0  0  0  0  0  0  0
   34.3511  -16.8035   35.9404 C   0  0  0  0  0  0  0  0  0  0  0  0
   33.6232  -15.6733   36.2196 C   0  0  0  0  0  0  0  0  0  0  0  0
   34.2710  -14.4729   36.3649 C   0  0  0  0  0  0  0  0  0  0  0  0
   33.6535  -20.3514   35.3923 N   0  0  0  0  0  0  0  0  0  0  0  0
   32.7624  -20.4250   34.2827 C   0  0  0  0  0  0  0  0  0  0  0  0
   32.2826  -21.7999   33.9668 C   0  0  0  0  0  0  0  0  0  0  0  0
   31.7115  -22.5558   35.1057 C   0  0  0  0  0  0  0  0  0  0  0  0
   31.5243  -21.8791   36.3146 N   0  0  0  0  0  0  0  0  0  0  0  0
   30.2775  -21.2932   36.6051 C   0  0  0  0  0  0  0  0  0  0  0  0
   32.6271  -21.5856   37.1379 C   0  0  0  0  0  0  0  0  0  0  0  0
   33.9278  -21.3234   36.4034 C   0  0  0  0  0  0  0  0  0  0  0  0
   35.8748  -11.9964   35.8412 C   0  0  0  0  0  0  0  0  0  0  0  0
   36.3462  -13.2132   36.3722 O   0  0  0  0  0  0  0  0  0  0  0  0
   37.8161  -17.9664   35.3708 N   0  0  0  0  0  0  0  0  0  0  0  0
   38.4106  -17.1640   35.6498 H   0  0  0  0  0  0  0  0  0  0  0  0
   38.5359  -19.1070   34.8185 C   0  0  0  0  0  0  0  0  0  0  0  0
   39.3523  -18.5984   33.6561 C   0  0  0  0  0  0  0  0  0  0  0  0
   40.7446  -19.1805   33.6266 C   0  0  0  0  0  0  0  0  0  0  0  0
   41.4420  -19.0573   34.8345 N   0  0  0  0  0  0  0  0  0  0  0  0
   40.6453  -18.8472   35.9706 C   0  0  0  0  0  0  0  0  0  0  0  0
   39.3904  -19.7042   35.8945 C   0  0  0  0  0  0  0  0  0  0  0  0
   42.7247  -19.6125   34.9667 C   0  0  0  0  0  0  0  0  0  0  0  0
   43.7291  -18.7063   35.6389 C   0  0  0  0  0  0  0  0  0  0  0  0
   42.7443  -20.9800   35.6199 C   0  0  0  0  0  0  0  0  0  0  0  0
   33.6969  -13.2597   36.6347 O   0  0  0  0  0  0  0  0  0  0  0  0
   32.3920  -12.9921   36.9317 C   0  0  0  0  0  0  0  0  0  0  0  0
   32.2240  -11.7403   37.7279 C   0  0  0  0  0  0  0  0  0  0  0  0
   33.4143  -10.8461   37.6977 C   0  0  0  0  0  0  0  0  0  0  0  0
   33.2979   -9.4804   37.5332 N   0  0  0  0  0  0  0  0  0  0  0  0
   32.1434   -8.7782   37.2230 C   0  0  0  0  0  0  0  0  0  0  0  0
   32.3999   -7.8849   36.0210 C   0  0  0  0  0  0  0  0  0  0  0  0
   33.8398   -8.1238   35.6770 C   0  0  0  0  0  0  0  0  0  0  0  0
   34.4295   -8.8360   36.8782 C   0  0  0  0  0  0  0  0  0  0  0  0
 19 20  1  0  0  0
 20  1  1  0  0  0
  1  2  2  0  0  0
  2  3  1  0  0  0
  3  4  2  0  0  0
  4 21  1  0  0  0
 21 23  1  0  0  0
 23 24  1  0  0  0
 24 25  1  0  0  0
 25 26  1  0  0  0
 26 27  1  0  0  0
 27 28  1  0  0  0
 26 29  1  0  0  0
 29 30  1  0  0  0
 29 31  1  0  0  0
  4  5  1  0  0  0
  5  6  2  0  0  0
  6  7  1  0  0  0
  7  8  2  0  0  0
  8  9  1  0  0  0
  9 10  2  0  0  0
 10 32  1  0  0  0
 32 33  1  0  0  0
 33 34  1  0  0  0
 34 35  1  0  0  0
 35 36  1  0  0  0
 36 37  1  0  0  0
 37 38  1  0  0  0
 38 39  1  0  0  0
 39 40  1  0  0  0
  6 11  1  0  0  0
 11 12  1  0  0  0
 12 13  1  0  0  0
 13 14  1  0  0  0
 14 15  1  0  0  0
 15 16  1  0  0  0
 15 17  1  0  0  0
 17 18  1  0  0  0
 10  1  1  0  0  0
 40 36  1  0  0  0
 18 11  1  0  0  0
  8  3  1  0  0  0
 28 23  1  0  0  0
 21 22  1  0  0  0
M  END
> <minimizedAffinity>
-7.07536

> <CNNscore>
0.4290305972

> <CNNaffinity>
6.8142371178

> <CNN_VS>
2.9235162735

> <CNNaffinity_variance>
0.0357546993

$$$$
[H]c1c(OC([H])([H])C([H])([H])C([H])([H])N2C([H])([H])C([H])([H])C([H])([H])C2([H])[H])c(OC([H])([H])[H])c([H])c2c(N([H])C3([H])C([H])([H])C([H])([H])N(C([H])(C([H])([H])[H])C([H])([H])[H])C([H])([H])C3([H])[H])nc(N3C([H])([H])C([H])([H])N(C([H])([H])[H])C([H])([H])C([H])([H])C3([H])[H])nc12


 40 44  0  0  0  0  0  0  0  0999 V2000
   34.2906  -15.0712   36.2331 C   0  0  0  0  0  0  0  0  0  0  0  0
   34.0989  -16.3072   35.6823 C   0  0  0  0  0  0  0  0  0  0  0  0
   35.1205  -17.1906   35.4100 C   0  0  0  0  0  0  0  0  0  0  0  0
   34.9190  -18.4254   34.8582 C   0  0  0  0  0  0  0  0  0  0  0  0
   36.0065  -19.2114   34.6329 N   0  0  0  0  0  0  0  0  0  0  0  0
   37.2505  -18.8029   34.9372 C   0  0  0  0  0  0  0  0  0  0  0  0
   37.4267  -17.5872   35.4787 N   0  0  0  0  0  0  0  0  0  0  0  0
   36.4090  -16.7486   35.7340 C   0  0  0  0  0  0  0  0  0  0  0  0
   36.6558  -15.5170   36.2884 C   0  0  0  0  0  0  0  0  0  0  0  0
   35.6073  -14.6701   36.5437 C   0  0  0  0  0  0  0  0  0  0  0  0
   38.3867  -19.6405   34.6851 N   0  0  0  0  0  0  0  0  0  0  0  0
   38.8322  -20.4278   35.7862 C   0  0  0  0  0  0  0  0  0  0  0  0
   39.7717  -21.5249   35.4202 C   0  0  0  0  0  0  0  0  0  0  0  0
   40.9386  -21.1216   34.6014 C   0  0  0  0  0  0  0  0  0  0  0  0
   41.1458  -19.7566   34.3816 N   0  0  0  0  0  0  0  0  0  0  0  0
   42.0045  -19.0316   35.2296 C   0  0  0  0  0  0  0  0  0  0  0  0
   40.3362  -19.0576   33.4671 C   0  0  0  0  0  0  0  0  0  0  0  0
   38.9086  -19.5576   33.3573 C   0  0  0  0  0  0  0  0  0  0  0  0
   32.9124  -13.7332   37.7621 C   0  0  0  0  0  0  0  0  0  0  0  0
   33.2202  -14.2325   36.4812 O   0  0  0  0  0  0  0  0  0  0  0  0
   33.6505  -18.8936   34.5203 N   0  0  0  0  0  0  0  0  0  0  0  0
   32.9420  -18.2823   34.0738 H   0  0  0  0  0  0  0  0  0  0  0  0
   33.2192  -20.2640   34.7652 C   0  0  0  0  0  0  0  0  0  0  0  0
   33.3001  -20.4975   36.2536 C   0  0  0  0  0  0  0  0  0  0  0  0
   32.1086  -21.2547   36.7874 C   0  0  0  0  0  0  0  0  0  0  0  0
   30.8725  -20.7080   36.4217 N   0  0  0  0  0  0  0  0  0  0  0  0
   30.8957  -19.8645   35.3003 C   0  0  0  0  0  0  0  0  0  0  0  0
   31.8265  -20.4320   34.2389 C   0  0  0  0  0  0  0  0  0  0  0  0
   29.6807  -21.3484   36.7967 C   0  0  0  0  0  0  0  0  0  0  0  0
   28.6825  -21.5125   35.6748 C   0  0  0  0  0  0  0  0  0  0  0  0
   29.8846  -22.6730   37.5046 C   0  0  0  0  0  0  0  0  0  0  0  0
   35.6802  -13.4198   37.0965 O   0  0  0  0  0  0  0  0  0  0  0  0
   36.3477  -12.3271   36.6246 C   0  0  0  0  0  0  0  0  0  0  0  0
   35.4312  -11.2546   36.1361 C   0  0  0  0  0  0  0  0  0  0  0  0
   34.2773  -10.9938   37.0406 C   0  0  0  0  0  0  0  0  0  0  0  0
   33.8486   -9.7133   37.3270 N   0  0  0  0  0  0  0  0  0  0  0  0
   32.5438   -9.3097   37.5650 C   0  0  0  0  0  0  0  0  0  0  0  0
   32.2014   -8.1382   36.6601 C   0  0  0  0  0  0  0  0  0  0  0  0
   33.4587   -7.8849   35.8829 C   0  0  0  0  0  0  0  0  0  0  0  0
   34.5451   -8.6515   36.6110 C   0  0  0  0  0  0  0  0  0  0  0  0
 19 20  1  0  0  0
 20  1  1  0  0  0
  1  2  2  0  0  0
  2  3  1  0  0  0
  3  4  2  0  0  0
  4 21  1  0  0  0
 21 23  1  0  0  0
 23 24  1  0  0  0
 24 25  1  0  0  0
 25 26  1  0  0  0
 26 27  1  0  0  0
 27 28  1  0  0  0
 26 29  1  0  0  0
 29 30  1  0  0  0
 29 31  1  0  0  0
  4  5  1  0  0  0
  5  6  2  0  0  0
  6  7  1  0  0  0
  7  8  2  0  0  0
  8  9  1  0  0  0
  9 10  2  0  0  0
 10 32  1  0  0  0
 32 33  1  0  0  0
 33 34  1  0  0  0
 34 35  1  0  0  0
 35 36  1  0  0  0
 36 37  1  0  0  0
 37 38  1  0  0  0
 38 39  1  0  0  0
 39 40  1  0  0  0
  6 11  1  0  0  0
 11 12  1  0  0  0
 12 13  1  0  0  0
 13 14  1  0  0  0
 14 15  1  0  0  0
 15 16  1  0  0  0
 15 17  1  0  0  0
 17 18  1  0  0  0
 10  1  1  0  0  0
 40 36  1  0  0  0
 18 11  1  0  0  0
  8  3  1  0  0  0
 28 23  1  0  0  0
 21 22  1  0  0  0
M  END
> <minimizedAffinity>
-7.21348

> <CNNscore>
0.4174670577

> <CNNaffinity>
7.0253233910

> <CNN_VS>
2.9328410625

> <CNNaffinity_variance>
0.0170885175

$$$$
[H]c1c(OC([H])([H])C([H])([H])C([H])([H])N2C([H])([H])C([H])([H])C([H])([H])C2([H])[H])c(OC([H])([H])[H])c([H])c2c(N([H])C3([H])C([H])([H])C([H])([H])N(C([H])(C([H])([H])[H])C([H])([H])[H])C([H])([H])C3([H])[H])nc(N3C([H])([H])C([H])([H])N(C([H])([H])[H])C([H])([H])C([H])([H])C3([H])[H])nc12


 40 44  0  0  0  0  0  0  0  0999 V2000
   36.1381  -14.2969   36.5796 C   0  0  0  0  0  0  0  0  0  0  0  0
   36.7300  -15.5269   36.5131 C   0  0  0  0  0  0  0  0  0  0  0  0
   36.0454  -16.6923   36.2458 C   0  0  0  0  0  0  0  0  0  0  0  0
   36.6463  -17.9189   36.1816 C   0  0  0  0  0  0  0  0  0  0  0  0
   35.8665  -19.0007   35.9113 N   0  0  0  0  0  0  0  0  0  0  0  0
   34.5422  -18.8864   35.7107 C   0  0  0  0  0  0  0  0  0  0  0  0
   33.9718  -17.6730   35.7776 N   0  0  0  0  0  0  0  0  0  0  0  0
   34.6675  -16.5541   36.0388 C   0  0  0  0  0  0  0  0  0  0  0  0
   34.0244  -15.3423   36.0948 C   0  0  0  0  0  0  0  0  0  0  0  0
   34.7467  -14.2074   36.3629 C   0  0  0  0  0  0  0  0  0  0  0  0
   33.7335  -20.0381   35.4356 N   0  0  0  0  0  0  0  0  0  0  0  0
   33.0238  -20.0156   34.2000 C   0  0  0  0  0  0  0  0  0  0  0  0
   32.4776  -21.3362   33.7781 C   0  0  0  0  0  0  0  0  0  0  0  0
   31.6699  -22.0490   34.7950 C   0  0  0  0  0  0  0  0  0  0  0  0
   31.3576  -21.3721   35.9776 N   0  0  0  0  0  0  0  0  0  0  0  0
   30.1386  -20.6763   36.0871 C   0  0  0  0  0  0  0  0  0  0  0  0
   32.3401  -21.1920   36.9688 C   0  0  0  0  0  0  0  0  0  0  0  0
   33.7579  -21.0431   36.4513 C   0  0  0  0  0  0  0  0  0  0  0  0
   38.1524  -13.2074   37.4645 C   0  0  0  0  0  0  0  0  0  0  0  0
   36.8842  -13.1656   36.8524 O   0  0  0  0  0  0  0  0  0  0  0  0
   38.0140  -18.0914   36.3867 N   0  0  0  0  0  0  0  0  0  0  0  0
   38.6037  -17.3466   36.8021 H   0  0  0  0  0  0  0  0  0  0  0  0
   38.7205  -19.3172   36.0371 C   0  0  0  0  0  0  0  0  0  0  0  0
   39.3419  -19.1016   34.6792 C   0  0  0  0  0  0  0  0  0  0  0  0
   40.7501  -19.6381   34.5942 C   0  0  0  0  0  0  0  0  0  0  0  0
   41.5943  -19.1946   35.6195 N   0  0  0  0  0  0  0  0  0  0  0  0
   40.9457  -18.7216   36.7707 C   0  0  0  0  0  0  0  0  0  0  0  0
   39.7457  -19.5999   37.0925 C   0  0  0  0  0  0  0  0  0  0  0  0
   42.9142  -19.6666   35.6986 C   0  0  0  0  0  0  0  0  0  0  0  0
   43.6141  -19.3437   36.9977 C   0  0  0  0  0  0  0  0  0  0  0  0
   43.0655  -21.1412   35.3829 C   0  0  0  0  0  0  0  0  0  0  0  0
   34.2633  -12.9292   36.4459 O   0  0  0  0  0  0  0  0  0  0  0  0
   33.9381  -12.2222   37.5669 C   0  0  0  0  0  0  0  0  0  0  0  0
   32.7164  -12.7451   38.2475 C   0  0  0  0  0  0  0  0  0  0  0  0
   31.4421  -12.2817   37.6320 C   0  0  0  0  0  0  0  0  0  0  0  0
   30.3725  -11.8607   38.3963 N   0  0  0  0  0  0  0  0  0  0  0  0
   29.5658  -12.6514   39.2001 C   0  0  0  0  0  0  0  0  0  0  0  0
   28.1076  -12.4152   38.8450 C   0  0  0  0  0  0  0  0  0  0  0  0
   28.1488  -11.3802   37.7606 C   0  0  0  0  0  0  0  0  0  0  0  0
   29.5546  -10.8143   37.7955 C   0  0  0  0  0  0  0  0  0  0  0  0
 19 20  1  0  0  0
 20  1  1  0  0  0
  1  2  2  0  0  0
  2  3  1  0  0  0
  3  4  2  0  0  0
  4 21  1  0  0  0
 21 23  1  0  0  0
 23 24  1  0  0  0
 24 25  1  0  0  0
 25 26  1  0  0  0
 26 27  1  0  0  0
 27 28  1  0  0  0
 26 29  1  0  0  0
 29 30  1  0  0  0
 29 31  1  0  0  0
  4  5  1  0  0  0
  5  6  2  0  0  0
  6  7  1  0  0  0
  7  8  2  0  0  0
  8  9  1  0  0  0
  9 10  2  0  0  0
 10 32  1  0  0  0
 32 33  1  0  0  0
 33 34  1  0  0  0
 34 35  1  0  0  0
 35 36  1  0  0  0
 36 37  1  0  0  0
 37 38  1  0  0  0
 38 39  1  0  0  0
 39 40  1  0  0  0
  6 11  1  0  0  0
 11 12  1  0  0  0
 12 13  1  0  0  0
 13 14  1  0  0  0
 14 15  1  0  0  0
 15 16  1  0  0  0
 15 17  1  0  0  0
 17 18  1  0  0  0
 10  1  1  0  0  0
 40 36  1  0  0  0
 18 11  1  0  0  0
  8  3  1  0  0  0
 28 23  1  0  0  0
 21 22  1  0  0  0
M  END
> <minimizedAffinity>
-8.33417

> <CNNscore>
0.3807097673

> <CNNaffinity>
6.6081571579

> <CNN_VS>
2.5157899857

> <CNNaffinity_variance>
0.2774771750

$$$$
[H]c1c(OC([H])([H])C([H])([H])C([H])([H])N2C([H])([H])C([H])([H])C([H])([H])C2([H])[H])c(OC([H])([H])[H])c([H])c2c(N([H])C3([H])C([H])([H])C([H])([H])N(C([H])(C([H])([H])[H])C([H])([H])[H])C([H])([H])C3([H])[H])nc(N3C([H])([H])C([H])([H])N(C([H])([H])[H])C([H])([H])C([H])([H])C3([H])[H])nc12


 40 44  0  0  0  0  0  0  0  0999 V2000
   36.4085  -14.7244   36.3943 C   0  0  0  0  0  0  0  0  0  0  0  0
   36.6638  -16.0565   36.5622 C   0  0  0  0  0  0  0  0  0  0  0  0
   35.6988  -17.0367   36.4830 C   0  0  0  0  0  0  0  0  0  0  0  0
   35.9637  -18.3674   36.6528 C   0  0  0  0  0  0  0  0  0  0  0  0
   34.9282  -19.2443   36.5532 N   0  0  0  0  0  0  0  0  0  0  0  0
   33.6745  -18.8331   36.2961 C   0  0  0  0  0  0  0  0  0  0  0  0
   33.4357  -17.5222   36.1321 N   0  0  0  0  0  0  0  0  0  0  0  0
   34.3993  -16.5901   36.2139 C   0  0  0  0  0  0  0  0  0  0  0  0
   34.0896  -15.2641   36.0373 C   0  0  0  0  0  0  0  0  0  0  0  0
   35.0833  -14.3224   36.1237 C   0  0  0  0  0  0  0  0  0  0  0  0
   32.5930  -19.7699   36.2032 N   0  0  0  0  0  0  0  0  0  0  0  0
   32.7428  -20.9661   36.9632 C   0  0  0  0  0  0  0  0  0  0  0  0
   31.4885  -21.7532   37.1287 C   0  0  0  0  0  0  0  0  0  0  0  0
   30.7528  -22.0550   35.8787 C   0  0  0  0  0  0  0  0  0  0  0  0
   31.3614  -21.7272   34.6636 N   0  0  0  0  0  0  0  0  0  0  0  0
   32.1160  -22.6947   33.9730 C   0  0  0  0  0  0  0  0  0  0  0  0
   31.4151  -20.3865   34.2395 C   0  0  0  0  0  0  0  0  0  0  0  0
   31.5191  -19.3622   35.3530 C   0  0  0  0  0  0  0  0  0  0  0  0
   38.1005  -13.5041   37.6888 C   0  0  0  0  0  0  0  0  0  0  0  0
   37.4242  -13.7913   36.4867 O   0  0  0  0  0  0  0  0  0  0  0  0
   37.2446  -18.8442   36.9257 N   0  0  0  0  0  0  0  0  0  0  0  0
   37.5100  -19.1948   37.8647 H   0  0  0  0  0  0  0  0  0  0  0  0
   38.3048  -18.8875   35.9267 C   0  0  0  0  0  0  0  0  0  0  0  0
   39.6138  -18.9881   36.6702 C   0  0  0  0  0  0  0  0  0  0  0  0
   40.5650  -19.9752   36.0385 C   0  0  0  0  0  0  0  0  0  0  0  0
   40.0086  -21.2394   35.8088 N   0  0  0  0  0  0  0  0  0  0  0  0
   38.6065  -21.2807   35.7645 C   0  0  0  0  0  0  0  0  0  0  0  0
   38.0710  -20.0625   35.0269 C   0  0  0  0  0  0  0  0  0  0  0  0
   40.7631  -22.2349   35.1678 C   0  0  0  0  0  0  0  0  0  0  0  0
   41.1739  -21.8919   33.7552 C   0  0  0  0  0  0  0  0  0  0  0  0
   41.9690  -22.7039   35.9571 C   0  0  0  0  0  0  0  0  0  0  0  0
   34.9454  -12.9694   35.9668 O   0  0  0  0  0  0  0  0  0  0  0  0
   34.9022  -12.0087   36.9351 C   0  0  0  0  0  0  0  0  0  0  0  0
   34.6758  -10.6399   36.3834 C   0  0  0  0  0  0  0  0  0  0  0  0
   33.9196   -9.7416   37.2992 C   0  0  0  0  0  0  0  0  0  0  0  0
   32.7475  -10.1402   37.9099 N   0  0  0  0  0  0  0  0  0  0  0  0
   32.3756  -11.4386   38.2225 C   0  0  0  0  0  0  0  0  0  0  0  0
   30.9935  -11.7209   37.6582 C   0  0  0  0  0  0  0  0  0  0  0  0
   30.5872  -10.4355   37.0013 C   0  0  0  0  0  0  0  0  0  0  0  0
   31.5589   -9.3930   37.5180 C   0  0  0  0  0  0  0  0  0  0  0  0
 19 20  1  0  0  0
 20  1  1  0  0  0
  1  2  2  0  0  0
  2  3  1  0  0  0
  3  4  2  0  0  0
  4 21  1  0  0  0
 21 23  1  0  0  0
 23 24  1  0  0  0
 24 25  1  0  0  0
 25 26  1  0  0  0
 26 27  1  0  0  0
 27 28  1  0  0  0
 26 29  1  0  0  0
 29 30  1  0  0  0
 29 31  1  0  0  0
  4  5  1  0  0  0
  5  6  2  0  0  0
  6  7  1  0  0  0
  7  8  2  0  0  0
  8  9  1  0  0  0
  9 10  2  0  0  0
 10 32  1  0  0  0
 32 33  1  0  0  0
 33 34  1  0  0  0
 34 35  1  0  0  0
 35 36  1  0  0  0
 36 37  1  0  0  0
 37 38  1  0  0  0
 38 39  1  0  0  0
 39 40  1  0  0  0
  6 11  1  0  0  0
 11 12  1  0  0  0
 12 13  1  0  0  0
 13 14  1  0  0  0
 14 15  1  0  0  0
 15 16  1  0  0  0
 15 17  1  0  0  0
 17 18  1  0  0  0
 10  1  1  0  0  0
 40 36  1  0  0  0
 18 11  1  0  0  0
  8  3  1  0  0  0
 28 23  1  0  0  0
 21 22  1  0  0  0
M  END
> <minimizedAffinity>
-6.47268

> <CNNscore>
0.3166500330

> <CNNaffinity>
6.7633233070

> <CNN_VS>
2.1416065693

> <CNNaffinity_variance>
0.0687373504

$$$$
[H]c1c(OC([H])([H])C([H])([H])C([H])([H])N2C([H])([H])C([H])([H])C([H])([H])C2([H])[H])c(OC([H])([H])[H])c([H])c2c(N([H])C3([H])C([H])([H])C([H])([H])N(C([H])(C([H])([H])[H])C([H])([H])[H])C([H])([H])C3([H])[H])nc(N3C([H])([H])C([H])([H])N(C([H])([H])[H])C([H])([H])C([H])([H])C3([H])[H])nc12


 40 44  0  0  0  0  0  0  0  0999 V2000
   38.5783  -19.1501   35.7228 C   0  0  0  0  0  0  0  0  0  0  0  0
   37.4112  -19.4744   36.3558 C   0  0  0  0  0  0  0  0  0  0  0  0
   37.3538  -20.1149   37.5743 C   0  0  0  0  0  0  0  0  0  0  0  0
   36.1810  -20.4357   38.2000 C   0  0  0  0  0  0  0  0  0  0  0  0
   36.2490  -21.0701   39.4018 N   0  0  0  0  0  0  0  0  0  0  0  0
   37.4256  -21.3807   39.9728 C   0  0  0  0  0  0  0  0  0  0  0  0
   38.5656  -21.0565   39.3422 N   0  0  0  0  0  0  0  0  0  0  0  0
   38.5887  -20.4299   38.1544 C   0  0  0  0  0  0  0  0  0  0  0  0
   39.7889  -20.1268   37.5604 C   0  0  0  0  0  0  0  0  0  0  0  0
   39.7981  -19.4871   36.3470 C   0  0  0  0  0  0  0  0  0  0  0  0
   37.4793  -22.0574   41.2358 N   0  0  0  0  0  0  0  0  0  0  0  0
   38.7851  -22.3365   41.7338 C   0  0  0  0  0  0  0  0  0  0  0  0
   38.8280  -22.7173   43.1737 C   0  0  0  0  0  0  0  0  0  0  0  0
   37.9066  -23.8055   43.5756 C   0  0  0  0  0  0  0  0  0  0  0  0
   37.2086  -24.4795   42.5692 N   0  0  0  0  0  0  0  0  0  0  0  0
   37.7301  -25.6713   42.0309 C   0  0  0  0  0  0  0  0  0  0  0  0
   36.1126  -23.8644   41.9362 C   0  0  0  0  0  0  0  0  0  0  0  0
   36.2051  -22.3559   41.8097 C   0  0  0  0  0  0  0  0  0  0  0  0
   38.4015  -19.1823   33.2743 C   0  0  0  0  0  0  0  0  0  0  0  0
   38.5655  -18.5065   34.4996 O   0  0  0  0  0  0  0  0  0  0  0  0
   34.9359  -20.1402   37.6481 N   0  0  0  0  0  0  0  0  0  0  0  0
   34.4935  -19.2093   37.7612 H   0  0  0  0  0  0  0  0  0  0  0  0
   34.1608  -21.1039   36.8768 C   0  0  0  0  0  0  0  0  0  0  0  0
   33.0147  -21.5539   37.7488 C   0  0  0  0  0  0  0  0  0  0  0  0
   31.7120  -21.6463   36.9921 C   0  0  0  0  0  0  0  0  0  0  0  0
   31.3846  -20.4903   36.2730 N   0  0  0  0  0  0  0  0  0  0  0  0
   32.4593  -19.6333   35.9899 C   0  0  0  0  0  0  0  0  0  0  0  0
   33.6906  -20.4450   35.6160 C   0  0  0  0  0  0  0  0  0  0  0  0
   30.2314  -20.4618   35.4727 C   0  0  0  0  0  0  0  0  0  0  0  0
   28.9720  -20.9045   36.1796 C   0  0  0  0  0  0  0  0  0  0  0  0
   29.9937  -19.1378   34.7744 C   0  0  0  0  0  0  0  0  0  0  0  0
   40.9005  -19.1089   35.6287 O   0  0  0  0  0  0  0  0  0  0  0  0
   41.9820  -19.8662   35.2835 C   0  0  0  0  0  0  0  0  0  0  0  0
   41.8302  -20.5188   33.9493 C   0  0  0  0  0  0  0  0  0  0  0  0
   41.0439  -21.7829   33.9860 C   0  0  0  0  0  0  0  0  0  0  0  0
   41.6122  -23.0054   33.6894 N   0  0  0  0  0  0  0  0  0  0  0  0
   42.5924  -23.2559   32.7416 C   0  0  0  0  0  0  0  0  0  0  0  0
   42.1382  -24.3800   31.8260 C   0  0  0  0  0  0  0  0  0  0  0  0
   40.7934  -24.7766   32.3580 C   0  0  0  0  0  0  0  0  0  0  0  0
   40.6984  -24.1404   33.7307 C   0  0  0  0  0  0  0  0  0  0  0  0
 19 20  1  0  0  0
 20  1  1  0  0  0
  1  2  2  0  0  0
  2  3  1  0  0  0
  3  4  2  0  0  0
  4 21  1  0  0  0
 21 23  1  0  0  0
 23 24  1  0  0  0
 24 25  1  0  0  0
 25 26  1  0  0  0
 26 27  1  0  0  0
 27 28  1  0  0  0
 26 29  1  0  0  0
 29 30  1  0  0  0
 29 31  1  0  0  0
  4  5  1  0  0  0
  5  6  2  0  0  0
  6  7  1  0  0  0
  7  8  2  0  0  0
  8  9  1  0  0  0
  9 10  2  0  0  0
 10 32  1  0  0  0
 32 33  1  0  0  0
 33 34  1  0  0  0
 34 35  1  0  0  0
 35 36  1  0  0  0
 36 37  1  0  0  0
 37 38  1  0  0  0
 38 39  1  0  0  0
 39 40  1  0  0  0
  6 11  1  0  0  0
 11 12  1  0  0  0
 12 13  1  0  0  0
 13 14  1  0  0  0
 14 15  1  0  0  0
 15 16  1  0  0  0
 15 17  1  0  0  0
 17 18  1  0  0  0
 10  1  1  0  0  0
 40 36  1  0  0  0
 18 11  1  0  0  0
  8  3  1  0  0  0
 28 23  1  0  0  0
 21 22  1  0  0  0
M  END
> <minimizedAffinity>
-4.79273

> <CNNscore>
0.2479190975

> <CNNaffinity>
5.5993947983

> <CNN_VS>
1.3881969452

> <CNNaffinity_variance>
0.1313516051

$$$$
[H]c1c(OC([H])([H])C([H])([H])C([H])([H])N2C([H])([H])C([H])([H])C([H])([H])C2([H])[H])c(OC([H])([H])[H])c([H])c2c(N([H])C3([H])C([H])([H])C([H])([H])N(C([H])(C([H])([H])[H])C([H])([H])[H])C([H])([H])C3([H])[H])nc(N3C([H])([H])C([H])([H])N(C([H])([H])[H])C([H])([H])C([H])([H])C3([H])[H])nc12


 40 44  0  0  0  0  0  0  0  0999 V2000
   33.1116  -20.9128   37.1747 C   0  0  0  0  0  0  0  0  0  0  0  0
   34.3795  -20.4185   37.0482 C   0  0  0  0  0  0  0  0  0  0  0  0
   35.4317  -20.7948   37.8541 C   0  0  0  0  0  0  0  0  0  0  0  0
   36.6971  -20.2944   37.7203 C   0  0  0  0  0  0  0  0  0  0  0  0
   37.6560  -20.7403   38.5764 N   0  0  0  0  0  0  0  0  0  0  0  0
   37.3859  -21.6460   39.5323 C   0  0  0  0  0  0  0  0  0  0  0  0
   36.1371  -22.1252   39.6466 N   0  0  0  0  0  0  0  0  0  0  0  0
   35.1320  -21.7393   38.8435 C   0  0  0  0  0  0  0  0  0  0  0  0
   33.8757  -22.2667   39.0129 C   0  0  0  0  0  0  0  0  0  0  0  0
   32.8581  -21.8635   38.1860 C   0  0  0  0  0  0  0  0  0  0  0  0
   38.4064  -22.0987   40.4321 N   0  0  0  0  0  0  0  0  0  0  0  0
   39.2514  -21.0852   40.9706 C   0  0  0  0  0  0  0  0  0  0  0  0
   40.0623  -21.5169   42.1437 C   0  0  0  0  0  0  0  0  0  0  0  0
   40.8452  -22.7608   41.9575 C   0  0  0  0  0  0  0  0  0  0  0  0
   40.8872  -23.3247   40.6790 N   0  0  0  0  0  0  0  0  0  0  0  0
   41.9469  -23.0096   39.8074 C   0  0  0  0  0  0  0  0  0  0  0  0
   39.7719  -24.0207   40.1771 C   0  0  0  0  0  0  0  0  0  0  0  0
   38.4257  -23.5103   40.6540 C   0  0  0  0  0  0  0  0  0  0  0  0
   32.2529  -20.3894   34.9350 C   0  0  0  0  0  0  0  0  0  0  0  0
   32.1000  -20.4922   36.3318 O   0  0  0  0  0  0  0  0  0  0  0  0
   37.0274  -19.3508   36.7492 N   0  0  0  0  0  0  0  0  0  0  0  0
   37.0840  -18.3384   36.9661 H   0  0  0  0  0  0  0  0  0  0  0  0
   37.3154  -19.7041   35.3649 C   0  0  0  0  0  0  0  0  0  0  0  0
   37.4203  -18.4146   34.5885 C   0  0  0  0  0  0  0  0  0  0  0  0
   38.5725  -18.4168   33.6136 C   0  0  0  0  0  0  0  0  0  0  0  0
   39.8018  -18.7736   34.1813 N   0  0  0  0  0  0  0  0  0  0  0  0
   39.7231  -19.4867   35.3875 C   0  0  0  0  0  0  0  0  0  0  0  0
   38.5865  -20.4962   35.3246 C   0  0  0  0  0  0  0  0  0  0  0  0
   40.9460  -18.8785   33.3745 C   0  0  0  0  0  0  0  0  0  0  0  0
   42.2425  -18.5845   34.0918 C   0  0  0  0  0  0  0  0  0  0  0  0
   41.0571  -20.1901   32.6232 C   0  0  0  0  0  0  0  0  0  0  0  0
   31.5590  -22.2942   38.2160 O   0  0  0  0  0  0  0  0  0  0  0  0
   31.0966  -23.5666   38.3878 C   0  0  0  0  0  0  0  0  0  0  0  0
   30.7836  -24.2486   37.0970 C   0  0  0  0  0  0  0  0  0  0  0  0
   29.3255  -24.3615   36.8165 C   0  0  0  0  0  0  0  0  0  0  0  0
   28.5707  -23.2740   36.4250 N   0  0  0  0  0  0  0  0  0  0  0  0
   29.0077  -22.1831   35.6895 C   0  0  0  0  0  0  0  0  0  0  0  0
   28.6403  -20.9004   36.4162 C   0  0  0  0  0  0  0  0  0  0  0  0
   27.9179  -21.3608   37.6471 C   0  0  0  0  0  0  0  0  0  0  0  0
   27.5866  -22.8191   37.3994 C   0  0  0  0  0  0  0  0  0  0  0  0
 19 20  1  0  0  0
 20  1  1  0  0  0
  1  2  2  0  0  0
  2  3  1  0  0  0
  3  4  2  0  0  0
  4 21  1  0  0  0
 21 23  1  0  0  0
 23 24  1  0  0  0
 24 25  1  0  0  0
 25 26  1  0  0  0
 26 27  1  0  0  0
 27 28  1  0  0  0
 26 29  1  0  0  0
 29 30  1  0  0  0
 29 31  1  0  0  0
  4  5  1  0  0  0
  5  6  2  0  0  0
  6  7  1  0  0  0
  7  8  2  0  0  0
  8  9  1  0  0  0
  9 10  2  0  0  0
 10 32  1  0  0  0
 32 33  1  0  0  0
 33 34  1  0  0  0
 34 35  1  0  0  0
 35 36  1  0  0  0
 36 37  1  0  0  0
 37 38  1  0  0  0
 38 39  1  0  0  0
 39 40  1  0  0  0
  6 11  1  0  0  0
 11 12  1  0  0  0
 12 13  1  0  0  0
 13 14  1  0  0  0
 14 15  1  0  0  0
 15 16  1  0  0  0
 15 17  1  0  0  0
 17 18  1  0  0  0
 10  1  1  0  0  0
 40 36  1  0  0  0
 18 11  1  0  0  0
  8  3  1  0  0  0
 28 23  1  0  0  0
 21 22  1  0  0  0
M  END
> <minimizedAffinity>
-4.80244

> <CNNscore>
0.2417822182

> <CNNaffinity>
5.4336972237

> <CNN_VS>
1.3137713671

> <CNNaffinity_variance>
0.6379446983

$$$$
[H]c1c(-c2nc3c([H])c(OC([H])([H])C([H])([H])C([H])([H])N4C([H])([H])C([H])([H])C([H])([H])C4([H])[H])c(OC([H])([H])[H])c([H])c3c(N([H])C3([H])C([H])([H])C([H])([H])C34C([H])([H])C([H])([H])N(C([H])([H])[H])C([H])([H])C4([H])[H])c2[H])oc(C([H])([H])[H])c1[H]


 39 44  0  0  0  0  0  0  0  0999 V2000
   36.0609  -13.9077   36.6708 C   0  0  0  0  0  0  0  0  0  0  0  0
   36.5065  -15.1571   36.2083 C   0  0  0  0  0  0  0  0  0  0  0  0
   35.6285  -16.1686   35.9108 C   0  0  0  0  0  0  0  0  0  0  0  0
   36.0514  -17.3981   35.4549 C   0  0  0  0  0  0  0  0  0  0  0  0
   35.0753  -18.3439   35.1848 C   0  0  0  0  0  0  0  0  0  0  0  0
   33.7311  -18.0884   35.3564 C   0  0  0  0  0  0  0  0  0  0  0  0
   33.3799  -16.8806   35.8000 N   0  0  0  0  0  0  0  0  0  0  0  0
   34.2598  -15.9059   36.0868 C   0  0  0  0  0  0  0  0  0  0  0  0
   33.8460  -14.6669   36.5434 C   0  0  0  0  0  0  0  0  0  0  0  0
   34.7230  -13.6579   36.8402 C   0  0  0  0  0  0  0  0  0  0  0  0
   32.7389  -19.1348   35.0519 C   0  0  0  0  0  0  0  0  0  0  0  0
   32.8562  -20.1665   34.1543 C   0  0  0  0  0  0  0  0  0  0  0  0
   31.6819  -20.8823   34.2164 C   0  0  0  0  0  0  0  0  0  0  0  0
   30.8869  -20.2565   35.1556 C   0  0  0  0  0  0  0  0  0  0  0  0
   29.5175  -20.6430   35.5903 C   0  0  0  0  0  0  0  0  0  0  0  0
   31.5594  -19.2501   35.6022 O   0  0  0  0  0  0  0  0  0  0  0  0
   38.1962  -13.2945   37.6496 C   0  0  0  0  0  0  0  0  0  0  0  0
   37.0335  -12.9387   36.9478 O   0  0  0  0  0  0  0  0  0  0  0  0
   37.4222  -17.6677   35.3082 N   0  0  0  0  0  0  0  0  0  0  0  0
   37.9973  -17.4212   34.4759 H   0  0  0  0  0  0  0  0  0  0  0  0
   38.1011  -18.3398   36.4163 C   0  0  0  0  0  0  0  0  0  0  0  0
   37.2723  -19.3291   37.1888 C   0  0  0  0  0  0  0  0  0  0  0  0
   38.5566  -20.1778   37.2853 C   0  0  0  0  0  0  0  0  0  0  0  0
   38.9732  -19.4948   35.9862 C   0  0  0  0  0  0  0  0  0  0  0  0
   38.5034  -20.3131   34.8301 C   0  0  0  0  0  0  0  0  0  0  0  0
   39.5977  -21.3658   34.5849 C   0  0  0  0  0  0  0  0  0  0  0  0
   40.7925  -20.7218   34.0606 N   0  0  0  0  0  0  0  0  0  0  0  0
   41.9956  -21.4118   34.4268 C   0  0  0  0  0  0  0  0  0  0  0  0
   40.8754  -19.3452   34.4628 C   0  0  0  0  0  0  0  0  0  0  0  0
   40.4361  -19.1472   35.9016 C   0  0  0  0  0  0  0  0  0  0  0  0
   34.2739  -12.4572   37.2860 O   0  0  0  0  0  0  0  0  0  0  0  0
   33.2205  -12.2702   38.2020 C   0  0  0  0  0  0  0  0  0  0  0  0
   32.2051  -11.3441   37.5700 C   0  0  0  0  0  0  0  0  0  0  0  0
   30.8170  -11.9546   37.5852 C   0  0  0  0  0  0  0  0  0  0  0  0
   29.8053  -10.9499   37.3458 N   0  0  0  0  0  0  0  0  0  0  0  0
   28.5035  -11.3260   37.7388 C   0  0  0  0  0  0  0  0  0  0  0  0
   28.1370  -10.5991   39.0000 C   0  0  0  0  0  0  0  0  0  0  0  0
   29.0138   -9.3768   38.9294 C   0  0  0  0  0  0  0  0  0  0  0  0
   30.1463   -9.7557   38.0258 C   0  0  0  0  0  0  0  0  0  0  0  0
 17 18  1  0  0  0
 18  1  1  0  0  0
  1  2  2  0  0  0
  2  3  1  0  0  0
  3  4  2  0  0  0
  4 19  1  0  0  0
 19 21  1  0  0  0
 21 22  1  0  0  0
 22 23  1  0  0  0
 23 24  1  0  0  0
 24 25  1  0  0  0
 25 26  1  0  0  0
 26 27  1  0  0  0
 27 28  1  0  0  0
 27 29  1  0  0  0
 29 30  1  0  0  0
  4  5  1  0  0  0
  5  6  2  0  0  0
  6  7  1  0  0  0
  7  8  2  0  0  0
  8  9  1  0  0  0
  9 10  2  0  0  0
 10 31  1  0  0  0
 31 32  1  0  0  0
 32 33  1  0  0  0
 33 34  1  0  0  0
 34 35  1  0  0  0
 35 36  1  0  0  0
 36 37  1  0  0  0
 37 38  1  0  0  0
 38 39  1  0  0  0
  6 11  1  0  0  0
 11 12  2  0  0  0
 12 13  1  0  0  0
 13 14  2  0  0  0
 14 15  1  0  0  0
 14 16  1  0  0  0
 10  1  1  0  0  0
 39 35  1  0  0  0
 16 11  1  0  0  0
  8  3  1  0  0  0
 24 21  1  0  0  0
 30 24  1  0  0  0
 19 20  1  0  0  0
M  END
> <minimizedAffinity>
-9.27002

> <CNNscore>
0.7757250071

> <CNNaffinity>
7.5749807358

> <CNN_VS>
5.8761019707

> <CNNaffinity_variance>
0.0443778820

$$$$
[H]c1c(-c2nc3c([H])c(OC([H])([H])C([H])([H])C([H])([H])N4C([H])([H])C([H])([H])C([H])([H])C4([H])[H])c(OC([H])([H])[H])c([H])c3c(N([H])C3([H])C([H])([H])C([H])([H])C34C([H])([H])C([H])([H])N(C([H])([H])[H])C([H])([H])C4([H])[H])c2[H])oc(C([H])([H])[H])c1[H]


 39 44  0  0  0  0  0  0  0  0999 V2000
   36.1506  -13.9773   36.4257 C   0  0  0  0  0  0  0  0  0  0  0  0
   36.5510  -15.2893   36.1225 C   0  0  0  0  0  0  0  0  0  0  0  0
   35.6361  -16.2790   35.8658 C   0  0  0  0  0  0  0  0  0  0  0  0
   36.0145  -17.5694   35.5655 C   0  0  0  0  0  0  0  0  0  0  0  0
   35.0041  -18.4860   35.3226 C   0  0  0  0  0  0  0  0  0  0  0  0
   33.6689  -18.1445   35.3726 C   0  0  0  0  0  0  0  0  0  0  0  0
   33.3614  -16.8808   35.6680 N   0  0  0  0  0  0  0  0  0  0  0  0
   34.2768  -15.9288   35.9178 C   0  0  0  0  0  0  0  0  0  0  0  0
   33.9078  -14.6295   36.2184 C   0  0  0  0  0  0  0  0  0  0  0  0
   34.8216  -13.6422   36.4746 C   0  0  0  0  0  0  0  0  0  0  0  0
   32.6387  -19.1638   35.1044 C   0  0  0  0  0  0  0  0  0  0  0  0
   32.6572  -20.1426   34.1425 C   0  0  0  0  0  0  0  0  0  0  0  0
   31.4847  -20.8517   34.2747 C   0  0  0  0  0  0  0  0  0  0  0  0
   30.7901  -20.2752   35.3191 C   0  0  0  0  0  0  0  0  0  0  0  0
   29.4627  -20.6755   35.8590 C   0  0  0  0  0  0  0  0  0  0  0  0
   31.5148  -19.3016   35.7566 O   0  0  0  0  0  0  0  0  0  0  0  0
   38.1958  -13.3413   37.5688 C   0  0  0  0  0  0  0  0  0  0  0  0
   37.1586  -13.0368   36.6730 O   0  0  0  0  0  0  0  0  0  0  0  0
   37.3737  -17.9236   35.5435 N   0  0  0  0  0  0  0  0  0  0  0  0
   38.0196  -17.7780   34.7398 H   0  0  0  0  0  0  0  0  0  0  0  0
   37.9317  -18.5374   36.7487 C   0  0  0  0  0  0  0  0  0  0  0  0
   37.1945  -19.7390   37.2731 C   0  0  0  0  0  0  0  0  0  0  0  0
   38.5827  -20.3126   37.6238 C   0  0  0  0  0  0  0  0  0  0  0  0
   39.1063  -19.4475   36.4813 C   0  0  0  0  0  0  0  0  0  0  0  0
   39.0836  -20.2400   35.2170 C   0  0  0  0  0  0  0  0  0  0  0  0
   40.4081  -21.0212   35.1839 C   0  0  0  0  0  0  0  0  0  0  0  0
   41.5166  -20.1032   34.9700 N   0  0  0  0  0  0  0  0  0  0  0  0
   42.7354  -20.5623   35.5713 C   0  0  0  0  0  0  0  0  0  0  0  0
   41.2090  -18.7794   35.4355 C   0  0  0  0  0  0  0  0  0  0  0  0
   40.4414  -18.8023   36.7442 C   0  0  0  0  0  0  0  0  0  0  0  0
   34.4160  -12.3801   36.7659 O   0  0  0  0  0  0  0  0  0  0  0  0
   33.5145  -12.0299   37.7897 C   0  0  0  0  0  0  0  0  0  0  0  0
   33.1859  -10.5603   37.6462 C   0  0  0  0  0  0  0  0  0  0  0  0
   34.3384   -9.7954   37.0245 C   0  0  0  0  0  0  0  0  0  0  0  0
   34.0070   -8.3974   36.8637 N   0  0  0  0  0  0  0  0  0  0  0  0
   34.7325   -7.7376   35.8493 C   0  0  0  0  0  0  0  0  0  0  0  0
   33.8374   -7.5143   34.6651 C   0  0  0  0  0  0  0  0  0  0  0  0
   32.4699   -7.5100   35.2958 C   0  0  0  0  0  0  0  0  0  0  0  0
   32.6262   -8.2622   36.5812 C   0  0  0  0  0  0  0  0  0  0  0  0
 17 18  1  0  0  0
 18  1  1  0  0  0
  1  2  2  0  0  0
  2  3  1  0  0  0
  3  4  2  0  0  0
  4 19  1  0  0  0
 19 21  1  0  0  0
 21 22  1  0  0  0
 22 23  1  0  0  0
 23 24  1  0  0  0
 24 25  1  0  0  0
 25 26  1  0  0  0
 26 27  1  0  0  0
 27 28  1  0  0  0
 27 29  1  0  0  0
 29 30  1  0  0  0
  4  5  1  0  0  0
  5  6  2  0  0  0
  6  7  1  0  0  0
  7  8  2  0  0  0
  8  9  1  0  0  0
  9 10  2  0  0  0
 10 31  1  0  0  0
 31 32  1  0  0  0
 32 33  1  0  0  0
 33 34  1  0  0  0
 34 35  1  0  0  0
 35 36  1  0  0  0
 36 37  1  0  0  0
 37 38  1  0  0  0
 38 39  1  0  0  0
  6 11  1  0  0  0
 11 12  2  0  0  0
 12 13  1  0  0  0
 13 14  2  0  0  0
 14 15  1  0  0  0
 14 16  1  0  0  0
 10  1  1  0  0  0
 39 35  1  0  0  0
 16 11  1  0  0  0
  8  3  1  0  0  0
 24 21  1  0  0  0
 30 24  1  0  0  0
 19 20  1  0  0  0
M  END
> <minimizedAffinity>
-8.98516

> <CNNscore>
0.7196130753

> <CNNaffinity>
7.5254869461

> <CNN_VS>
5.4154386520

> <CNNaffinity_variance>
0.0829712525

$$$$
[H]c1c(-c2nc3c([H])c(OC([H])([H])C([H])([H])C([H])([H])N4C([H])([H])C([H])([H])C([H])([H])C4([H])[H])c(OC([H])([H])[H])c([H])c3c(N([H])C3([H])C([H])([H])C([H])([H])C34C([H])([H])C([H])([H])N(C([H])([H])[H])C([H])([H])C4([H])[H])c2[H])oc(C([H])([H])[H])c1[H]


 39 44  0  0  0  0  0  0  0  0999 V2000
   36.0957  -13.8826   36.6374 C   0  0  0  0  0  0  0  0  0  0  0  0
   36.5346  -15.1144   36.1244 C   0  0  0  0  0  0  0  0  0  0  0  0
   35.6555  -16.1278   35.8367 C   0  0  0  0  0  0  0  0  0  0  0  0
   36.0717  -17.3403   35.3317 C   0  0  0  0  0  0  0  0  0  0  0  0
   35.0951  -18.2898   35.0772 C   0  0  0  0  0  0  0  0  0  0  0  0
   33.7566  -18.0541   35.3105 C   0  0  0  0  0  0  0  0  0  0  0  0
   33.4116  -16.8622   35.7998 N   0  0  0  0  0  0  0  0  0  0  0  0
   34.2926  -15.8853   36.0757 C   0  0  0  0  0  0  0  0  0  0  0  0
   33.8853  -14.6633   36.5812 C   0  0  0  0  0  0  0  0  0  0  0  0
   34.7635  -13.6524   36.8682 C   0  0  0  0  0  0  0  0  0  0  0  0
   32.7635  -19.1035   35.0197 C   0  0  0  0  0  0  0  0  0  0  0  0
   32.8750  -20.1399   34.1268 C   0  0  0  0  0  0  0  0  0  0  0  0
   31.7022  -20.8570   34.2022 C   0  0  0  0  0  0  0  0  0  0  0  0
   30.9140  -20.2272   35.1443 C   0  0  0  0  0  0  0  0  0  0  0  0
   29.5486  -20.6131   35.5921 C   0  0  0  0  0  0  0  0  0  0  0  0
   31.5885  -19.2174   35.5801 O   0  0  0  0  0  0  0  0  0  0  0  0
   38.2172  -13.2487   37.6328 C   0  0  0  0  0  0  0  0  0  0  0  0
   37.0689  -12.9101   36.8996 O   0  0  0  0  0  0  0  0  0  0  0  0
   37.4380  -17.5905   35.1219 N   0  0  0  0  0  0  0  0  0  0  0  0
   38.2072  -16.9113   35.2989 H   0  0  0  0  0  0  0  0  0  0  0  0
   37.8141  -18.9138   34.6241 C   0  0  0  0  0  0  0  0  0  0  0  0
   39.0449  -18.9635   33.7611 C   0  0  0  0  0  0  0  0  0  0  0  0
   39.3540  -20.3068   34.4533 C   0  0  0  0  0  0  0  0  0  0  0  0
   38.5583  -19.7556   35.6326 C   0  0  0  0  0  0  0  0  0  0  0  0
   39.4869  -19.0478   36.5620 C   0  0  0  0  0  0  0  0  0  0  0  0
   40.0544  -20.1290   37.4972 C   0  0  0  0  0  0  0  0  0  0  0  0
   39.0086  -20.6082   38.3883 N   0  0  0  0  0  0  0  0  0  0  0  0
   39.2020  -21.9747   38.7795 C   0  0  0  0  0  0  0  0  0  0  0  0
   37.7024  -20.4433   37.8134 C   0  0  0  0  0  0  0  0  0  0  0  0
   37.6898  -20.7682   36.3313 C   0  0  0  0  0  0  0  0  0  0  0  0
   34.3209  -12.4687   37.3634 O   0  0  0  0  0  0  0  0  0  0  0  0
   33.2308  -12.3091   38.2407 C   0  0  0  0  0  0  0  0  0  0  0  0
   32.2464  -11.3553   37.6010 C   0  0  0  0  0  0  0  0  0  0  0  0
   30.8492  -11.9439   37.5686 C   0  0  0  0  0  0  0  0  0  0  0  0
   29.8600  -10.9198   37.3181 N   0  0  0  0  0  0  0  0  0  0  0  0
   28.5551  -11.2519   37.7394 C   0  0  0  0  0  0  0  0  0  0  0  0
   28.2265  -10.4839   38.9867 C   0  0  0  0  0  0  0  0  0  0  0  0
   29.1331   -9.2869   38.8719 C   0  0  0  0  0  0  0  0  0  0  0  0
   30.2417   -9.7179   37.9620 C   0  0  0  0  0  0  0  0  0  0  0  0
 17 18  1  0  0  0
 18  1  1  0  0  0
  1  2  2  0  0  0
  2  3  1  0  0  0
  3  4  2  0  0  0
  4 19  1  0  0  0
 19 21  1  0  0  0
 21 22  1  0  0  0
 22 23  1  0  0  0
 23 24  1  0  0  0
 24 25  1  0  0  0
 25 26  1  0  0  0
 26 27  1  0  0  0
 27 28  1  0  0  0
 27 29  1  0  0  0
 29 30  1  0  0  0
  4  5  1  0  0  0
  5  6  2  0  0  0
  6  7  1  0  0  0
  7  8  2  0  0  0
  8  9  1  0  0  0
  9 10  2  0  0  0
 10 31  1  0  0  0
 31 32  1  0  0  0
 32 33  1  0  0  0
 33 34  1  0  0  0
 34 35  1  0  0  0
 35 36  1  0  0  0
 36 37  1  0  0  0
 37 38  1  0  0  0
 38 39  1  0  0  0
  6 11  1  0  0  0
 11 12  2  0  0  0
 12 13  1  0  0  0
 13 14  2  0  0  0
 14 15  1  0  0  0
 14 16  1  0  0  0
 10  1  1  0  0  0
 39 35  1  0  0  0
 16 11  1  0  0  0
  8  3  1  0  0  0
 24 21  1  0  0  0
 30 24  1  0  0  0
 19 20  1  0  0  0
M  END
> <minimizedAffinity>
-9.13844

> <CNNscore>
0.6885198951

> <CNNaffinity>
7.4628548622

> <CNN_VS>
5.1383242607

> <CNNaffinity_variance>
0.0567930825

$$$$
[H]c1c(-c2nc3c([H])c(OC([H])([H])C([H])([H])C([H])([H])N4C([H])([H])C([H])([H])C([H])([H])C4([H])[H])c(OC([H])([H])[H])c([H])c3c(N([H])C3([H])C([H])([H])C([H])([H])C34C([H])([H])C([H])([H])N(C([H])([H])[H])C([H])([H])C4([H])[H])c2[H])oc(C([H])([H])[H])c1[H]


 39 44  0  0  0  0  0  0  0  0999 V2000
   36.1323  -14.3434   36.3682 C   0  0  0  0  0  0  0  0  0  0  0  0
   36.5268  -15.6894   36.2894 C   0  0  0  0  0  0  0  0  0  0  0  0
   35.6220  -16.6906   36.0419 C   0  0  0  0  0  0  0  0  0  0  0  0
   35.9951  -18.0145   35.9604 C   0  0  0  0  0  0  0  0  0  0  0  0
   34.9961  -18.9399   35.7045 C   0  0  0  0  0  0  0  0  0  0  0  0
   33.6770  -18.5754   35.5340 C   0  0  0  0  0  0  0  0  0  0  0  0
   33.3740  -17.2796   35.6235 N   0  0  0  0  0  0  0  0  0  0  0  0
   34.2790  -16.3167   35.8691 C   0  0  0  0  0  0  0  0  0  0  0  0
   33.9155  -14.9841   35.9511 C   0  0  0  0  0  0  0  0  0  0  0  0
   34.8193  -13.9853   36.1983 C   0  0  0  0  0  0  0  0  0  0  0  0
   32.6584  -19.6057   35.2638 C   0  0  0  0  0  0  0  0  0  0  0  0
   32.7555  -20.6789   34.4137 C   0  0  0  0  0  0  0  0  0  0  0  0
   31.5605  -21.3577   34.4930 C   0  0  0  0  0  0  0  0  0  0  0  0
   30.7738  -20.6688   35.3942 C   0  0  0  0  0  0  0  0  0  0  0  0
   29.3892  -20.9968   35.8290 C   0  0  0  0  0  0  0  0  0  0  0  0
   31.4702  -19.6631   35.8044 O   0  0  0  0  0  0  0  0  0  0  0  0
   37.9600  -13.5367   37.7474 C   0  0  0  0  0  0  0  0  0  0  0  0
   37.1291  -13.3936   36.6249 O   0  0  0  0  0  0  0  0  0  0  0  0
   37.3339  -18.3884   36.1632 N   0  0  0  0  0  0  0  0  0  0  0  0
   38.0208  -17.8686   36.7484 H   0  0  0  0  0  0  0  0  0  0  0  0
   37.8006  -19.6110   35.5090 C   0  0  0  0  0  0  0  0  0  0  0  0
   38.3949  -19.4345   34.1386 C   0  0  0  0  0  0  0  0  0  0  0  0
   39.3982  -20.5344   34.5417 C   0  0  0  0  0  0  0  0  0  0  0  0
   39.1608  -20.0708   35.9758 C   0  0  0  0  0  0  0  0  0  0  0  0
   40.1583  -19.0159   36.3209 C   0  0  0  0  0  0  0  0  0  0  0  0
   41.4116  -19.7624   36.8084 C   0  0  0  0  0  0  0  0  0  0  0  0
   41.1439  -20.3872   38.0949 N   0  0  0  0  0  0  0  0  0  0  0  0
   41.9121  -21.5817   38.2974 C   0  0  0  0  0  0  0  0  0  0  0  0
   39.7459  -20.6682   38.2697 C   0  0  0  0  0  0  0  0  0  0  0  0
   39.1063  -21.1803   36.9926 C   0  0  0  0  0  0  0  0  0  0  0  0
   34.4195  -12.6903   36.2709 O   0  0  0  0  0  0  0  0  0  0  0  0
   34.0995  -12.0017   37.4570 C   0  0  0  0  0  0  0  0  0  0  0  0
   32.9028  -12.6791   38.0872 C   0  0  0  0  0  0  0  0  0  0  0  0
   31.6150  -12.2847   37.3902 C   0  0  0  0  0  0  0  0  0  0  0  0
   30.7417  -11.5586   38.2849 N   0  0  0  0  0  0  0  0  0  0  0  0
   29.8676  -10.6557   37.6436 C   0  0  0  0  0  0  0  0  0  0  0  0
   28.4788  -11.2257   37.6438 C   0  0  0  0  0  0  0  0  0  0  0  0
   28.5149  -12.1520   38.8306 C   0  0  0  0  0  0  0  0  0  0  0  0
   29.9634  -12.4703   39.0384 C   0  0  0  0  0  0  0  0  0  0  0  0
 17 18  1  0  0  0
 18  1  1  0  0  0
  1  2  2  0  0  0
  2  3  1  0  0  0
  3  4  2  0  0  0
  4 19  1  0  0  0
 19 21  1  0  0  0
 21 22  1  0  0  0
 22 23  1  0  0  0
 23 24  1  0  0  0
 24 25  1  0  0  0
 25 26  1  0  0  0
 26 27  1  0  0  0
 27 28  1  0  0  0
 27 29  1  0  0  0
 29 30  1  0  0  0
  4  5  1  0  0  0
  5  6  2  0  0  0
  6  7  1  0  0  0
  7  8  2  0  0  0
  8  9  1  0  0  0
  9 10  2  0  0  0
 10 31  1  0  0  0
 31 32  1  0  0  0
 32 33  1  0  0  0
 33 34  1  0  0  0
 34 35  1  0  0  0
 35 36  1  0  0  0
 36 37  1  0  0  0
 37 38  1  0  0  0
 38 39  1  0  0  0
  6 11  1  0  0  0
 11 12  2  0  0  0
 12 13  1  0  0  0
 13 14  2  0  0  0
 14 15  1  0  0  0
 14 16  1  0  0  0
 10  1  1  0  0  0
 39 35  1  0  0  0
 16 11  1  0  0  0
  8  3  1  0  0  0
 24 21  1  0  0  0
 30 24  1  0  0  0
 19 20  1  0  0  0
M  END
> <minimizedAffinity>
-8.64156

> <CNNscore>
0.5152825713

> <CNNaffinity>
7.1097917557

> <CNN_VS>
3.6635518074

> <CNNaffinity_variance>
0.2014940530

$$$$
[H]c1c(-c2nc3c([H])c(OC([H])([H])C([H])([H])C([H])([H])N4C([H])([H])C([H])([H])C([H])([H])C4([H])[H])c(OC([H])([H])[H])c([H])c3c(N([H])C3([H])C([H])([H])C([H])([H])C34C([H])([H])C([H])([H])N(C([H])([H])[H])C([H])([H])C4([H])[H])c2[H])oc(C([H])([H])[H])c1[H]


 39 44  0  0  0  0  0  0  0  0999 V2000
   36.0727  -14.3628   36.5156 C   0  0  0  0  0  0  0  0  0  0  0  0
   36.6993  -15.6071   36.3359 C   0  0  0  0  0  0  0  0  0  0  0  0
   35.9808  -16.7380   36.0403 C   0  0  0  0  0  0  0  0  0  0  0  0
   36.5824  -17.9644   35.8598 C   0  0  0  0  0  0  0  0  0  0  0  0
   35.7574  -19.0374   35.5631 C   0  0  0  0  0  0  0  0  0  0  0  0
   34.3893  -18.9079   35.4472 C   0  0  0  0  0  0  0  0  0  0  0  0
   33.8620  -17.6969   35.6321 N   0  0  0  0  0  0  0  0  0  0  0  0
   34.5875  -16.6035   35.9233 C   0  0  0  0  0  0  0  0  0  0  0  0
   33.9938  -15.3668   36.1046 C   0  0  0  0  0  0  0  0  0  0  0  0
   34.7118  -14.2385   36.3998 C   0  0  0  0  0  0  0  0  0  0  0  0
   33.5634  -20.0865   35.1294 C   0  0  0  0  0  0  0  0  0  0  0  0
   32.8640  -20.3342   33.9748 C   0  0  0  0  0  0  0  0  0  0  0  0
   32.2472  -21.5540   34.1380 C   0  0  0  0  0  0  0  0  0  0  0  0
   32.5955  -22.0079   35.3943 C   0  0  0  0  0  0  0  0  0  0  0  0
   32.1854  -23.2803   36.0473 C   0  0  0  0  0  0  0  0  0  0  0  0
   33.3603  -21.1096   35.9164 O   0  0  0  0  0  0  0  0  0  0  0  0
   38.0189  -13.4372   37.6334 C   0  0  0  0  0  0  0  0  0  0  0  0
   36.8911  -13.2663   36.8149 O   0  0  0  0  0  0  0  0  0  0  0  0
   37.9727  -18.1016   36.0068 N   0  0  0  0  0  0  0  0  0  0  0  0
   38.5886  -17.4472   36.5328 H   0  0  0  0  0  0  0  0  0  0  0  0
   38.6073  -19.2612   35.3799 C   0  0  0  0  0  0  0  0  0  0  0  0
   39.5671  -18.9580   34.2623 C   0  0  0  0  0  0  0  0  0  0  0  0
   40.4150  -20.1252   34.8082 C   0  0  0  0  0  0  0  0  0  0  0  0
   39.7786  -19.8101   36.1586 C   0  0  0  0  0  0  0  0  0  0  0  0
   40.6356  -18.8293   36.8870 C   0  0  0  0  0  0  0  0  0  0  0  0
   41.6988  -19.6619   37.6234 C   0  0  0  0  0  0  0  0  0  0  0  0
   41.0761  -20.4118   38.7038 N   0  0  0  0  0  0  0  0  0  0  0  0
   41.7558  -21.6442   38.9814 C   0  0  0  0  0  0  0  0  0  0  0  0
   39.6866  -20.6666   38.4432 C   0  0  0  0  0  0  0  0  0  0  0  0
   39.4376  -21.0195   36.9887 C   0  0  0  0  0  0  0  0  0  0  0  0
   34.0889  -13.0447   36.5701 O   0  0  0  0  0  0  0  0  0  0  0  0
   32.6985  -12.8624   36.7006 C   0  0  0  0  0  0  0  0  0  0  0  0
   32.3698  -12.7828   38.1750 C   0  0  0  0  0  0  0  0  0  0  0  0
   30.8986  -12.4895   38.3972 C   0  0  0  0  0  0  0  0  0  0  0  0
   30.4385  -11.4427   37.5125 N   0  0  0  0  0  0  0  0  0  0  0  0
   29.1463  -10.9569   37.8041 C   0  0  0  0  0  0  0  0  0  0  0  0
   29.2583   -9.6035   38.4438 C   0  0  0  0  0  0  0  0  0  0  0  0
   30.5857   -9.1155   37.9264 C   0  0  0  0  0  0  0  0  0  0  0  0
   31.3413  -10.3526   37.5505 C   0  0  0  0  0  0  0  0  0  0  0  0
 17 18  1  0  0  0
 18  1  1  0  0  0
  1  2  2  0  0  0
  2  3  1  0  0  0
  3  4  2  0  0  0
  4 19  1  0  0  0
 19 21  1  0  0  0
 21 22  1  0  0  0
 22 23  1  0  0  0
 23 24  1  0  0  0
 24 25  1  0  0  0
 25 26  1  0  0  0
 26 27  1  0  0  0
 27 28  1  0  0  0
 27 29  1  0  0  0
 29 30  1  0  0  0
  4  5  1  0  0  0
  5  6  2  0  0  0
  6  7  1  0  0  0
  7  8  2  0  0  0
  8  9  1  0  0  0
  9 10  2  0  0  0
 10 31  1  0  0  0
 31 32  1  0  0  0
 32 33  1  0  0  0
 33 34  1  0  0  0
 34 35  1  0  0  0
 35 36  1  0  0  0
 36 37  1  0  0  0
 37 38  1  0  0  0
 38 39  1  0  0  0
  6 11  1  0  0  0
 11 12  2  0  0  0
 12 13  1  0  0  0
 13 14  2  0  0  0
 14 15  1  0  0  0
 14 16  1  0  0  0
 10  1  1  0  0  0
 39 35  1  0  0  0
 16 11  1  0  0  0
  8  3  1  0  0  0
 24 21  1  0  0  0
 30 24  1  0  0  0
 19 20  1  0  0  0
M  END
> <minimizedAffinity>
-8.50452

> <CNNscore>
0.4622623026

> <CNNaffinity>
6.9170784950

> <CNN_VS>
3.1975045204

> <CNNaffinity_variance>
0.0357301235

$$$$
[H]c1c(-c2nc3c([H])c(OC([H])([H])C([H])([H])C([H])([H])N4C([H])([H])C([H])([H])C([H])([H])C4([H])[H])c(OC([H])([H])[H])c([H])c3c(N([H])C3([H])C([H])([H])C([H])([H])C34C([H])([H])C([H])([H])N(C([H])([H])[H])C([H])([H])C4([H])[H])c2[H])oc(C([H])([H])[H])c1[H]


 39 44  0  0  0  0  0  0  0  0999 V2000
   37.6700  -20.0995   36.0092 C   0  0  0  0  0  0  0  0  0  0  0  0
   36.3707  -19.7228   35.6304 C   0  0  0  0  0  0  0  0  0  0  0  0
   35.8968  -18.4542   35.8508 C   0  0  0  0  0  0  0  0  0  0  0  0
   34.6256  -18.0706   35.4831 C   0  0  0  0  0  0  0  0  0  0  0  0
   34.2548  -16.7632   35.7538 C   0  0  0  0  0  0  0  0  0  0  0  0
   35.1052  -15.8652   36.3639 C   0  0  0  0  0  0  0  0  0  0  0  0
   36.3240  -16.2919   36.6976 N   0  0  0  0  0  0  0  0  0  0  0  0
   36.7648  -17.5416   36.4728 C   0  0  0  0  0  0  0  0  0  0  0  0
   38.0401  -17.9367   36.8362 C   0  0  0  0  0  0  0  0  0  0  0  0
   38.5123  -19.2033   36.6159 C   0  0  0  0  0  0  0  0  0  0  0  0
   34.6541  -14.4868   36.6259 C   0  0  0  0  0  0  0  0  0  0  0  0
   35.3808  -13.3288   36.5049 C   0  0  0  0  0  0  0  0  0  0  0  0
   34.5421  -12.2950   36.8557 C   0  0  0  0  0  0  0  0  0  0  0  0
   33.3272  -12.8646   37.1798 C   0  0  0  0  0  0  0  0  0  0  0  0
   32.0877  -12.1716   37.6238 C   0  0  0  0  0  0  0  0  0  0  0  0
   33.4596  -14.1386   37.0253 O   0  0  0  0  0  0  0  0  0  0  0  0
   38.8448  -21.6990   34.6109 C   0  0  0  0  0  0  0  0  0  0  0  0
   38.0626  -21.4172   35.7422 O   0  0  0  0  0  0  0  0  0  0  0  0
   33.7496  -18.9939   34.8884 N   0  0  0  0  0  0  0  0  0  0  0  0
   33.9549  -19.5523   34.0338 H   0  0  0  0  0  0  0  0  0  0  0  0
   32.4477  -19.1966   35.5244 C   0  0  0  0  0  0  0  0  0  0  0  0
   31.2472  -18.9175   34.6624 C   0  0  0  0  0  0  0  0  0  0  0  0
   30.5879  -20.1220   35.3649 C   0  0  0  0  0  0  0  0  0  0  0  0
   32.0084  -20.6405   35.5671 C   0  0  0  0  0  0  0  0  0  0  0  0
   32.3840  -21.5042   34.4096 C   0  0  0  0  0  0  0  0  0  0  0  0
   31.8616  -22.9114   34.7451 C   0  0  0  0  0  0  0  0  0  0  0  0
   32.6389  -23.4783   35.8369 N   0  0  0  0  0  0  0  0  0  0  0  0
   31.8773  -24.3924   36.6382 C   0  0  0  0  0  0  0  0  0  0  0  0
   33.2115  -22.4569   36.6692 C   0  0  0  0  0  0  0  0  0  0  0  0
   32.2500  -21.3054   36.8966 C   0  0  0  0  0  0  0  0  0  0  0  0
   39.7707  -19.5491   36.9888 O   0  0  0  0  0  0  0  0  0  0  0  0
   40.9225  -18.7612   36.7986 C   0  0  0  0  0  0  0  0  0  0  0  0
   41.2332  -18.7301   35.3185 C   0  0  0  0  0  0  0  0  0  0  0  0
   42.6074  -19.3035   35.0311 C   0  0  0  0  0  0  0  0  0  0  0  0
   43.5343  -18.2627   34.6468 N   0  0  0  0  0  0  0  0  0  0  0  0
   43.0763  -16.9514   34.8945 C   0  0  0  0  0  0  0  0  0  0  0  0
   43.8007  -16.3897   36.0833 C   0  0  0  0  0  0  0  0  0  0  0  0
   45.0794  -17.1852   36.0822 C   0  0  0  0  0  0  0  0  0  0  0  0
   44.7625  -18.4399   35.3287 C   0  0  0  0  0  0  0  0  0  0  0  0
 17 18  1  0  0  0
 18  1  1  0  0  0
  1  2  2  0  0  0
  2  3  1  0  0  0
  3  4  2  0  0  0
  4 19  1  0  0  0
 19 21  1  0  0  0
 21 22  1  0  0  0
 22 23  1  0  0  0
 23 24  1  0  0  0
 24 25  1  0  0  0
 25 26  1  0  0  0
 26 27  1  0  0  0
 27 28  1  0  0  0
 27 29  1  0  0  0
 29 30  1  0  0  0
  4  5  1  0  0  0
  5  6  2  0  0  0
  6  7  1  0  0  0
  7  8  2  0  0  0
  8  9  1  0  0  0
  9 10  2  0  0  0
 10 31  1  0  0  0
 31 32  1  0  0  0
 32 33  1  0  0  0
 33 34  1  0  0  0
 34 35  1  0  0  0
 35 36  1  0  0  0
 36 37  1  0  0  0
 37 38  1  0  0  0
 38 39  1  0  0  0
  6 11  1  0  0  0
 11 12  2  0  0  0
 12 13  1  0  0  0
 13 14  2  0  0  0
 14 15  1  0  0  0
 14 16  1  0  0  0
 10  1  1  0  0  0
 39 35  1  0  0  0
 16 11  1  0  0  0
  8  3  1  0  0  0
 24 21  1  0  0  0
 30 24  1  0  0  0
 19 20  1  0  0  0
M  END
> <minimizedAffinity>
-7.50759

> <CNNscore>
0.3740668595

> <CNNaffinity>
6.6129112244

> <CNN_VS>
2.4736709595

> <CNNaffinity_variance>
0.1025491506

$$$$
[H]c1c(-c2nc3c([H])c(OC([H])([H])C([H])([H])C([H])([H])N4C([H])([H])C([H])([H])C([H])([H])C4([H])[H])c(OC([H])([H])[H])c([H])c3c(N([H])C3([H])C([H])([H])C([H])([H])C34C([H])([H])C([H])([H])N(C([H])([H])[H])C([H])([H])C4([H])[H])c2[H])oc(C([H])([H])[H])c1[H]


 39 44  0  0  0  0  0  0  0  0999 V2000
   38.2990  -21.7575   38.6580 C   0  0  0  0  0  0  0  0  0  0  0  0
   38.7437  -20.7683   37.7652 C   0  0  0  0  0  0  0  0  0  0  0  0
   37.9554  -19.6972   37.4279 C   0  0  0  0  0  0  0  0  0  0  0  0
   38.3792  -18.7190   36.5550 C   0  0  0  0  0  0  0  0  0  0  0  0
   37.4990  -17.6825   36.2888 C   0  0  0  0  0  0  0  0  0  0  0  0
   36.2467  -17.6107   36.8618 C   0  0  0  0  0  0  0  0  0  0  0  0
   35.8900  -18.5855   37.6994 N   0  0  0  0  0  0  0  0  0  0  0  0
   36.6801  -19.6267   38.0127 C   0  0  0  0  0  0  0  0  0  0  0  0
   36.2652  -20.6135   38.8896 C   0  0  0  0  0  0  0  0  0  0  0  0
   37.0527  -21.6824   39.2255 C   0  0  0  0  0  0  0  0  0  0  0  0
   35.3543  -16.4829   36.5400 C   0  0  0  0  0  0  0  0  0  0  0  0
   34.2434  -16.4955   35.7341 C   0  0  0  0  0  0  0  0  0  0  0  0
   33.7373  -15.2153   35.7351 C   0  0  0  0  0  0  0  0  0  0  0  0
   34.5638  -14.4645   36.5469 C   0  0  0  0  0  0  0  0  0  0  0  0
   34.4456  -13.0182   36.8757 C   0  0  0  0  0  0  0  0  0  0  0  0
   35.4816  -15.2599   36.9822 O   0  0  0  0  0  0  0  0  0  0  0  0
   40.5440  -22.6813   38.6531 C   0  0  0  0  0  0  0  0  0  0  0  0
   39.1760  -22.8124   38.9401 O   0  0  0  0  0  0  0  0  0  0  0  0
   39.6434  -18.8078   35.9489 N   0  0  0  0  0  0  0  0  0  0  0  0
   40.5534  -18.6590   36.4327 H   0  0  0  0  0  0  0  0  0  0  0  0
   39.6884  -19.1461   34.5262 C   0  0  0  0  0  0  0  0  0  0  0  0
   40.8271  -18.5480   33.7466 C   0  0  0  0  0  0  0  0  0  0  0  0
   40.8695  -19.8837   32.9765 C   0  0  0  0  0  0  0  0  0  0  0  0
   40.2834  -20.5041   34.2411 C   0  0  0  0  0  0  0  0  0  0  0  0
   41.3965  -20.9620   35.1233 C   0  0  0  0  0  0  0  0  0  0  0  0
   41.7622  -22.3766   34.6427 C   0  0  0  0  0  0  0  0  0  0  0  0
   40.6881  -23.3017   34.9711 N   0  0  0  0  0  0  0  0  0  0  0  0
   40.5959  -24.3905   34.0417 C   0  0  0  0  0  0  0  0  0  0  0  0
   39.4207  -22.6327   35.0694 C   0  0  0  0  0  0  0  0  0  0  0  0
   39.2530  -21.5745   33.9950 C   0  0  0  0  0  0  0  0  0  0  0  0
   36.6060  -22.6285   40.0901 O   0  0  0  0  0  0  0  0  0  0  0  0
   35.8600  -23.7692   39.7354 C   0  0  0  0  0  0  0  0  0  0  0  0
   34.6044  -23.7923   40.5787 C   0  0  0  0  0  0  0  0  0  0  0  0
   33.6667  -24.9012   40.1418 C   0  0  0  0  0  0  0  0  0  0  0  0
   32.3084  -24.4187   40.0301 N   0  0  0  0  0  0  0  0  0  0  0  0
   31.3276  -25.3206   40.4941 C   0  0  0  0  0  0  0  0  0  0  0  0
   30.8004  -24.8425   41.8158 C   0  0  0  0  0  0  0  0  0  0  0  0
   31.0683  -23.3621   41.7490 C   0  0  0  0  0  0  0  0  0  0  0  0
   32.1708  -23.2058   40.7475 C   0  0  0  0  0  0  0  0  0  0  0  0
 17 18  1  0  0  0
 18  1  1  0  0  0
  1  2  2  0  0  0
  2  3  1  0  0  0
  3  4  2  0  0  0
  4 19  1  0  0  0
 19 21  1  0  0  0
 21 22  1  0  0  0
 22 23  1  0  0  0
 23 24  1  0  0  0
 24 25  1  0  0  0
 25 26  1  0  0  0
 26 27  1  0  0  0
 27 28  1  0  0  0
 27 29  1  0  0  0
 29 30  1  0  0  0
  4  5  1  0  0  0
  5  6  2  0  0  0
  6  7  1  0  0  0
  7  8  2  0  0  0
  8  9  1  0  0  0
  9 10  2  0  0  0
 10 31  1  0  0  0
 31 32  1  0  0  0
 32 33  1  0  0  0
 33 34  1  0  0  0
 34 35  1  0  0  0
 35 36  1  0  0  0
 36 37  1  0  0  0
 37 38  1  0  0  0
 38 39  1  0  0  0
  6 11  1  0  0  0
 11 12  2  0  0  0
 12 13  1  0  0  0
 13 14  2  0  0  0
 14 15  1  0  0  0
 14 16  1  0  0  0
 10  1  1  0  0  0
 39 35  1  0  0  0
 16 11  1  0  0  0
  8  3  1  0  0  0
 24 21  1  0  0  0
 30 24  1  0  0  0
 19 20  1  0  0  0
M  END
> <minimizedAffinity>
-5.10309

> <CNNscore>
0.3599191308

> <CNNaffinity>
5.9543471336

> <CNN_VS>
2.1430833340

> <CNNaffinity_variance>
0.0713464916

$$$$
[H]c1c(-c2nc3c([H])c(OC([H])([H])C([H])([H])C([H])([H])N4C([H])([H])C([H])([H])C([H])([H])C4([H])[H])c(OC([H])([H])[H])c([H])c3c(N([H])C3([H])C([H])([H])C([H])([H])C34C([H])([H])C([H])([H])N(C([H])([H])[H])C([H])([H])C4([H])[H])c2[H])oc(C([H])([H])[H])c1[H]


 39 44  0  0  0  0  0  0  0  0999 V2000
   37.6022  -19.7252   35.8018 C   0  0  0  0  0  0  0  0  0  0  0  0
   36.2818  -19.3833   35.4655 C   0  0  0  0  0  0  0  0  0  0  0  0
   35.7648  -18.1448   35.7507 C   0  0  0  0  0  0  0  0  0  0  0  0
   34.4723  -17.7955   35.4253 C   0  0  0  0  0  0  0  0  0  0  0  0
   34.0580  -16.5164   35.7604 C   0  0  0  0  0  0  0  0  0  0  0  0
   34.8864  -15.6130   36.3923 C   0  0  0  0  0  0  0  0  0  0  0  0
   36.1274  -16.0059   36.6829 N   0  0  0  0  0  0  0  0  0  0  0  0
   36.6105  -17.2267   36.3948 C   0  0  0  0  0  0  0  0  0  0  0  0
   37.9075  -17.5872   36.7154 C   0  0  0  0  0  0  0  0  0  0  0  0
   38.4227  -18.8237   36.4305 C   0  0  0  0  0  0  0  0  0  0  0  0
   34.3889  -14.2658   36.7234 C   0  0  0  0  0  0  0  0  0  0  0  0
   35.1175  -13.1093   36.8471 C   0  0  0  0  0  0  0  0  0  0  0  0
   34.2256  -12.1101   37.1652 C   0  0  0  0  0  0  0  0  0  0  0  0
   32.9781  -12.6981   37.2240 C   0  0  0  0  0  0  0  0  0  0  0  0
   31.6779  -12.0434   37.5317 C   0  0  0  0  0  0  0  0  0  0  0  0
   33.1429  -13.9497   36.9576 O   0  0  0  0  0  0  0  0  0  0  0  0
   38.7505  -21.2264   34.2782 C   0  0  0  0  0  0  0  0  0  0  0  0
   38.0389  -21.0138   35.4696 O   0  0  0  0  0  0  0  0  0  0  0  0
   33.6196  -18.7258   34.8081 N   0  0  0  0  0  0  0  0  0  0  0  0
   33.8267  -19.2366   33.9247 H   0  0  0  0  0  0  0  0  0  0  0  0
   32.3418  -19.0088   35.4620 C   0  0  0  0  0  0  0  0  0  0  0  0
   31.1172  -18.8483   34.6036 C   0  0  0  0  0  0  0  0  0  0  0  0
   30.5576  -20.0785   35.3469 C   0  0  0  0  0  0  0  0  0  0  0  0
   32.0153  -20.4802   35.5507 C   0  0  0  0  0  0  0  0  0  0  0  0
   32.4478  -21.3465   34.4151 C   0  0  0  0  0  0  0  0  0  0  0  0
   32.0378  -22.7791   34.7962 C   0  0  0  0  0  0  0  0  0  0  0  0
   32.8642  -23.2521   35.8965 N   0  0  0  0  0  0  0  0  0  0  0  0
   32.1810  -24.1978   36.7311 C   0  0  0  0  0  0  0  0  0  0  0  0
   33.3625  -22.1656   36.6934 C   0  0  0  0  0  0  0  0  0  0  0  0
   32.3169  -21.0850   36.8965 C   0  0  0  0  0  0  0  0  0  0  0  0
   39.7010  -19.1360   36.7631 O   0  0  0  0  0  0  0  0  0  0  0  0
   40.8514  -18.6938   36.0816 C   0  0  0  0  0  0  0  0  0  0  0  0
   42.0180  -19.5507   36.5208 C   0  0  0  0  0  0  0  0  0  0  0  0
   42.6490  -20.2690   35.3436 C   0  0  0  0  0  0  0  0  0  0  0  0
   42.2093  -21.6447   35.2785 N   0  0  0  0  0  0  0  0  0  0  0  0
   42.3314  -22.2377   34.0040 C   0  0  0  0  0  0  0  0  0  0  0  0
   43.4920  -23.1898   34.0095 C   0  0  0  0  0  0  0  0  0  0  0  0
   43.5990  -23.5531   35.4671 C   0  0  0  0  0  0  0  0  0  0  0  0
   42.9432  -22.4261   36.2035 C   0  0  0  0  0  0  0  0  0  0  0  0
 17 18  1  0  0  0
 18  1  1  0  0  0
  1  2  2  0  0  0
  2  3  1  0  0  0
  3  4  2  0  0  0
  4 19  1  0  0  0
 19 21  1  0  0  0
 21 22  1  0  0  0
 22 23  1  0  0  0
 23 24  1  0  0  0
 24 25  1  0  0  0
 25 26  1  0  0  0
 26 27  1  0  0  0
 27 28  1  0  0  0
 27 29  1  0  0  0
 29 30  1  0  0  0
  4  5  1  0  0  0
  5  6  2  0  0  0
  6  7  1  0  0  0
  7  8  2  0  0  0
  8  9  1  0  0  0
  9 10  2  0  0  0
 10 31  1  0  0  0
 31 32  1  0  0  0
 32 33  1  0  0  0
 33 34  1  0  0  0
 34 35  1  0  0  0
 35 36  1  0  0  0
 36 37  1  0  0  0
 37 38  1  0  0  0
 38 39  1  0  0  0
  6 11  1  0  0  0
 11 12  2  0  0  0
 12 13  1  0  0  0
 13 14  2  0  0  0
 14 15  1  0  0  0
 14 16  1  0  0  0
 10  1  1  0  0  0
 39 35  1  0  0  0
 16 11  1  0  0  0
  8  3  1  0  0  0
 24 21  1  0  0  0
 30 24  1  0  0  0
 19 20  1  0  0  0
M  END
> <minimizedAffinity>
-6.88851

> <CNNscore>
0.3139032423

> <CNNaffinity>
6.4147338867

> <CNN_VS>
2.0136058331

> <CNNaffinity_variance>
0.1001010314

$$$$
[H]c1c(-c2nc3c([H])c(OC([H])([H])C([H])([H])C([H])([H])N4C([H])([H])C([H])([H])C([H])([H])C4([H])[H])c(OC([H])([H])[H])c([H])c3c(N([H])C3([H])C([H])([H])C([H])([H])C34C([H])([H])C([H])([H])N(C([H])([H])[H])C([H])([H])C4([H])[H])c2[H])oc(C([H])([H])[H])c1[H]


 39 44  0  0  0  0  0  0  0  0999 V2000
   39.3462  -21.0359   39.2289 C   0  0  0  0  0  0  0  0  0  0  0  0
   39.3938  -20.2690   38.0529 C   0  0  0  0  0  0  0  0  0  0  0  0
   38.2516  -19.9001   37.3882 C   0  0  0  0  0  0  0  0  0  0  0  0
   38.2835  -19.1469   36.2349 C   0  0  0  0  0  0  0  0  0  0  0  0
   37.0675  -18.8320   35.6498 C   0  0  0  0  0  0  0  0  0  0  0  0
   35.8632  -19.2431   36.1812 C   0  0  0  0  0  0  0  0  0  0  0  0
   35.8931  -19.9697   37.2993 N   0  0  0  0  0  0  0  0  0  0  0  0
   37.0263  -20.3204   37.9314 C   0  0  0  0  0  0  0  0  0  0  0  0
   37.0056  -21.0749   39.0912 C   0  0  0  0  0  0  0  0  0  0  0  0
   38.1463  -21.4428   39.7539 C   0  0  0  0  0  0  0  0  0  0  0  0
   34.6015  -18.8767   35.5135 C   0  0  0  0  0  0  0  0  0  0  0  0
   34.4223  -17.9735   34.4958 C   0  0  0  0  0  0  0  0  0  0  0  0
   33.0775  -17.9682   34.2016 C   0  0  0  0  0  0  0  0  0  0  0  0
   32.4825  -18.8742   35.0564 C   0  0  0  0  0  0  0  0  0  0  0  0
   31.0415  -19.2354   35.1389 C   0  0  0  0  0  0  0  0  0  0  0  0
   33.4221  -19.3661   35.7911 O   0  0  0  0  0  0  0  0  0  0  0  0
   41.2389  -20.4075   40.6133 C   0  0  0  0  0  0  0  0  0  0  0  0
   40.5658  -21.3626   39.8351 O   0  0  0  0  0  0  0  0  0  0  0  0
   39.5115  -18.7533   35.6779 N   0  0  0  0  0  0  0  0  0  0  0  0
   40.2318  -18.1755   36.1591 H   0  0  0  0  0  0  0  0  0  0  0  0
   39.8093  -19.1978   34.3162 C   0  0  0  0  0  0  0  0  0  0  0  0
   40.8212  -18.3763   33.5656 C   0  0  0  0  0  0  0  0  0  0  0  0
   41.3160  -19.7110   32.9717 C   0  0  0  0  0  0  0  0  0  0  0  0
   40.7826  -20.3502   34.2503 C   0  0  0  0  0  0  0  0  0  0  0  0
   41.8707  -20.3856   35.2710 C   0  0  0  0  0  0  0  0  0  0  0  0
   42.6629  -21.6758   34.9998 C   0  0  0  0  0  0  0  0  0  0  0  0
   41.8538  -22.8336   35.3497 N   0  0  0  0  0  0  0  0  0  0  0  0
   42.1704  -23.9864   34.5567 C   0  0  0  0  0  0  0  0  0  0  0  0
   40.4488  -22.5480   35.2600 C   0  0  0  0  0  0  0  0  0  0  0  0
   40.1205  -21.6884   34.0535 C   0  0  0  0  0  0  0  0  0  0  0  0
   38.0806  -22.1841   40.8889 O   0  0  0  0  0  0  0  0  0  0  0  0
   36.9058  -22.7382   41.4334 C   0  0  0  0  0  0  0  0  0  0  0  0
   36.7577  -22.2301   42.8504 C   0  0  0  0  0  0  0  0  0  0  0  0
   36.1004  -23.2659   43.7420 C   0  0  0  0  0  0  0  0  0  0  0  0
   35.0614  -22.6699   44.5516 N   0  0  0  0  0  0  0  0  0  0  0  0
   34.5364  -21.4662   44.0357 C   0  0  0  0  0  0  0  0  0  0  0  0
   33.1729  -21.7252   43.4636 C   0  0  0  0  0  0  0  0  0  0  0  0
   32.7304  -22.9417   44.2332 C   0  0  0  0  0  0  0  0  0  0  0  0
   33.9944  -23.5867   44.7119 C   0  0  0  0  0  0  0  0  0  0  0  0
 17 18  1  0  0  0
 18  1  1  0  0  0
  1  2  2  0  0  0
  2  3  1  0  0  0
  3  4  2  0  0  0
  4 19  1  0  0  0
 19 21  1  0  0  0
 21 22  1  0  0  0
 22 23  1  0  0  0
 23 24  1  0  0  0
 24 25  1  0  0  0
 25 26  1  0  0  0
 26 27  1  0  0  0
 27 28  1  0  0  0
 27 29  1  0  0  0
 29 30  1  0  0  0
  4  5  1  0  0  0
  5  6  2  0  0  0
  6  7  1  0  0  0
  7  8  2  0  0  0
  8  9  1  0  0  0
  9 10  2  0  0  0
 10 31  1  0  0  0
 31 32  1  0  0  0
 32 33  1  0  0  0
 33 34  1  0  0  0
 34 35  1  0  0  0
 35 36  1  0  0  0
 36 37  1  0  0  0
 37 38  1  0  0  0
 38 39  1  0  0  0
  6 11  1  0  0  0
 11 12  2  0  0  0
 12 13  1  0  0  0
 13 14  2  0  0  0
 14 15  1  0  0  0
 14 16  1  0  0  0
 10  1  1  0  0  0
 39 35  1  0  0  0
 16 11  1  0  0  0
  8  3  1  0  0  0
 24 21  1  0  0  0
 30 24  1  0  0  0
 19 20  1  0  0  0
M  END
> <minimizedAffinity>
-4.90485

> <CNNscore>
0.3006881177

> <CNNaffinity>
5.9251756668

> <CNN_VS>
1.7816299200

> <CNNaffinity_variance>
0.0865424052

$$$$
[H]c1c(N2C([H])([H])C([H])([H])OC([H])([H])C2([H])[H])nc2c([H])c(OC([H])([H])[H])c(OC([H])([H])[H])c([H])c2c1N([H])C1([H])C([H])([H])C([H])([H])N(C([H])([H])[H])C([H])([H])C1([H])[H]


 29 32  0  0  0  0  0  0  0  0999 V2000
   34.7230  -13.5694   36.7649 C   0  0  0  0  0  0  0  0  0  0  0  0
   33.8713  -14.6119   36.4758 C   0  0  0  0  0  0  0  0  0  0  0  0
   34.3271  -15.8558   36.0880 C   0  0  0  0  0  0  0  0  0  0  0  0
   33.4587  -16.8461   35.8145 N   0  0  0  0  0  0  0  0  0  0  0  0
   33.8595  -18.0714   35.4333 C   0  0  0  0  0  0  0  0  0  0  0  0
   35.1975  -18.3436   35.3126 C   0  0  0  0  0  0  0  0  0  0  0  0
   36.1231  -17.3613   35.5818 C   0  0  0  0  0  0  0  0  0  0  0  0
   35.7002  -16.0999   35.9746 C   0  0  0  0  0  0  0  0  0  0  0  0
   36.5710  -15.0739   36.2581 C   0  0  0  0  0  0  0  0  0  0  0  0
   36.0862  -13.8251   36.6483 C   0  0  0  0  0  0  0  0  0  0  0  0
   32.8510  -19.0677   35.1632 N   0  0  0  0  0  0  0  0  0  0  0  0
   33.2937  -20.3739   34.7264 C   0  0  0  0  0  0  0  0  0  0  0  0
   32.1891  -21.2490   34.2130 C   0  0  0  0  0  0  0  0  0  0  0  0
   30.9646  -21.0500   34.8000 O   0  0  0  0  0  0  0  0  0  0  0  0
   30.5263  -19.7320   34.7003 C   0  0  0  0  0  0  0  0  0  0  0  0
   31.4639  -18.7593   35.3279 C   0  0  0  0  0  0  0  0  0  0  0  0
   33.1944  -12.0392   37.9384 C   0  0  0  0  0  0  0  0  0  0  0  0
   34.3136  -12.3049   37.1577 O   0  0  0  0  0  0  0  0  0  0  0  0
   37.5000  -17.6565   35.4668 N   0  0  0  0  0  0  0  0  0  0  0  0
   38.2683  -17.1040   35.9013 H   0  0  0  0  0  0  0  0  0  0  0  0
   37.9498  -18.8088   34.6976 C   0  0  0  0  0  0  0  0  0  0  0  0
   38.9284  -19.6690   35.5060 C   0  0  0  0  0  0  0  0  0  0  0  0
   39.4202  -20.7577   34.6054 C   0  0  0  0  0  0  0  0  0  0  0  0
   40.3066  -20.1948   33.6047 N   0  0  0  0  0  0  0  0  0  0  0  0
   41.6460  -20.6303   33.8435 C   0  0  0  0  0  0  0  0  0  0  0  0
   40.1781  -18.7522   33.5283 C   0  0  0  0  0  0  0  0  0  0  0  0
   38.7239  -18.3846   33.4629 C   0  0  0  0  0  0  0  0  0  0  0  0
   37.0051  -12.8286   36.9216 O   0  0  0  0  0  0  0  0  0  0  0  0
   38.1951  -13.1395   37.5833 C   0  0  0  0  0  0  0  0  0  0  0  0
 17 18  1  0  0  0
 18  1  1  0  0  0
  1  2  2  0  0  0
  2  3  1  0  0  0
  3  4  2  0  0  0
  4  5  1  0  0  0
  5  6  2  0  0  0
  6  7  1  0  0  0
  7 19  1  0  0  0
 19 21  1  0  0  0
 21 22  1  0  0  0
 22 23  1  0  0  0
 23 24  1  0  0  0
 24 25  1  0  0  0
 24 26  1  0  0  0
 26 27  1  0  0  0
  7  8  2  0  0  0
  8  9  1  0  0  0
  9 10  2  0  0  0
 10 28  1  0  0  0
 28 29  1  0  0  0
  5 11  1  0  0  0
 11 12  1  0  0  0
 12 13  1  0  0  0
 13 14  1  0  0  0
 14 15  1  0  0  0
 15 16  1  0  0  0
 10  1  1  0  0  0
 16 11  1  0  0  0
  8  3  1  0  0  0
 27 21  1  0  0  0
 19 20  1  0  0  0
M  END
> <minimizedAffinity>
-7.52004

> <CNNscore>
0.9006993175

> <CNNaffinity>
6.3138122559

> <CNN_VS>
5.6868462563

> <CNNaffinity_variance>
0.0571824908

$$$$
[H]c1c(N2C([H])([H])C([H])([H])OC([H])([H])C2([H])[H])nc2c([H])c(OC([H])([H])[H])c(OC([H])([H])[H])c([H])c2c1N([H])C1([H])C([H])([H])C([H])([H])N(C([H])([H])[H])C([H])([H])C1([H])[H]


 29 32  0  0  0  0  0  0  0  0999 V2000
   34.7695  -13.6638   36.8016 C   0  0  0  0  0  0  0  0  0  0  0  0
   33.9283  -14.6953   36.4495 C   0  0  0  0  0  0  0  0  0  0  0  0
   34.3970  -15.9264   36.0369 C   0  0  0  0  0  0  0  0  0  0  0  0
   33.5385  -16.9061   35.7015 N   0  0  0  0  0  0  0  0  0  0  0  0
   33.9521  -18.1187   35.2942 C   0  0  0  0  0  0  0  0  0  0  0  0
   35.2935  -18.3883   35.2105 C   0  0  0  0  0  0  0  0  0  0  0  0
   36.2093  -17.4164   35.5433 C   0  0  0  0  0  0  0  0  0  0  0  0
   35.7732  -16.1682   35.9626 C   0  0  0  0  0  0  0  0  0  0  0  0
   36.6338  -15.1530   36.3092 C   0  0  0  0  0  0  0  0  0  0  0  0
   36.1359  -13.9170   36.7233 C   0  0  0  0  0  0  0  0  0  0  0  0
   32.9535  -19.1045   34.9572 N   0  0  0  0  0  0  0  0  0  0  0  0
   31.5959  -18.8665   35.3970 C   0  0  0  0  0  0  0  0  0  0  0  0
   30.6914  -20.0531   35.2442 C   0  0  0  0  0  0  0  0  0  0  0  0
   30.9841  -20.8794   34.1882 O   0  0  0  0  0  0  0  0  0  0  0  0
   32.2908  -21.3594   34.2247 C   0  0  0  0  0  0  0  0  0  0  0  0
   33.3092  -20.2722   34.2114 C   0  0  0  0  0  0  0  0  0  0  0  0
   33.1719  -12.1645   37.9218 C   0  0  0  0  0  0  0  0  0  0  0  0
   34.3469  -12.4124   37.2214 O   0  0  0  0  0  0  0  0  0  0  0  0
   37.5894  -17.7093   35.4658 N   0  0  0  0  0  0  0  0  0  0  0  0
   38.2065  -17.4726   34.6611 H   0  0  0  0  0  0  0  0  0  0  0  0
   38.2655  -18.3914   36.5609 C   0  0  0  0  0  0  0  0  0  0  0  0
   39.4681  -19.1973   36.0556 C   0  0  0  0  0  0  0  0  0  0  0  0
   40.0288  -19.9478   37.2220 C   0  0  0  0  0  0  0  0  0  0  0  0
   39.1180  -21.0130   37.5956 N   0  0  0  0  0  0  0  0  0  0  0  0
   39.7012  -22.2800   37.2869 C   0  0  0  0  0  0  0  0  0  0  0  0
   37.8069  -20.8263   37.0043 C   0  0  0  0  0  0  0  0  0  0  0  0
   37.3580  -19.4107   37.2251 C   0  0  0  0  0  0  0  0  0  0  0  0
   37.0450  -12.9311   37.0605 O   0  0  0  0  0  0  0  0  0  0  0  0
   38.3148  -13.2821   37.5242 C   0  0  0  0  0  0  0  0  0  0  0  0
 17 18  1  0  0  0
 18  1  1  0  0  0
  1  2  2  0  0  0
  2  3  1  0  0  0
  3  4  2  0  0  0
  4  5  1  0  0  0
  5  6  2  0  0  0
  6  7  1  0  0  0
  7 19  1  0  0  0
 19 21  1  0  0  0
 21 22  1  0  0  0
 22 23  1  0  0  0
 23 24  1  0  0  0
 24 25  1  0  0  0
 24 26  1  0  0  0
 26 27  1  0  0  0
  7  8  2  0  0  0
  8  9  1  0  0  0
  9 10  2  0  0  0
 10 28  1  0  0  0
 28 29  1  0  0  0
  5 11  1  0  0  0
 11 12  1  0  0  0
 12 13  1  0  0  0
 13 14  1  0  0  0
 14 15  1  0  0  0
 15 16  1  0  0  0
 10  1  1  0  0  0
 16 11  1  0  0  0
  8  3  1  0  0  0
 27 21  1  0  0  0
 19 20  1  0  0  0
M  END
> <minimizedAffinity>
-7.06490

> <CNNscore>
0.8340896964

> <CNNaffinity>
5.9506812096

> <CNN_VS>
4.9634017944

> <CNNaffinity_variance>
0.2381490916

$$$$
[H]c1c(N2C([H])([H])C([H])([H])OC([H])([H])C2([H])[H])nc2c([H])c(OC([H])([H])[H])c(OC([H])([H])[H])c([H])c2c1N([H])C1([H])C([H])([H])C([H])([H])N(C([H])([H])[H])C([H])([H])C1([H])[H]


 29 32  0  0  0  0  0  0  0  0999 V2000
   31.2716  -19.8307   34.9102 C   0  0  0  0  0  0  0  0  0  0  0  0
   31.7057  -18.5978   35.3430 C   0  0  0  0  0  0  0  0  0  0  0  0
   33.0317  -18.2179   35.2893 C   0  0  0  0  0  0  0  0  0  0  0  0
   33.4117  -17.0029   35.7240 N   0  0  0  0  0  0  0  0  0  0  0  0
   34.6916  -16.5931   35.6904 C   0  0  0  0  0  0  0  0  0  0  0  0
   35.6615  -17.4280   35.1989 C   0  0  0  0  0  0  0  0  0  0  0  0
   35.3199  -18.6808   34.7431 C   0  0  0  0  0  0  0  0  0  0  0  0
   33.9966  -19.0949   34.7817 C   0  0  0  0  0  0  0  0  0  0  0  0
   33.5873  -20.3326   34.3432 C   0  0  0  0  0  0  0  0  0  0  0  0
   32.2411  -20.6937   34.4076 C   0  0  0  0  0  0  0  0  0  0  0  0
   34.9995  -15.2706   36.1789 N   0  0  0  0  0  0  0  0  0  0  0  0
   36.3939  -14.9107   36.3177 C   0  0  0  0  0  0  0  0  0  0  0  0
   36.6196  -13.6378   37.0780 C   0  0  0  0  0  0  0  0  0  0  0  0
   35.6303  -12.6954   36.9477 O   0  0  0  0  0  0  0  0  0  0  0  0
   34.3755  -13.1764   37.3126 C   0  0  0  0  0  0  0  0  0  0  0  0
   33.9498  -14.3565   36.5092 C   0  0  0  0  0  0  0  0  0  0  0  0
   29.2897  -20.6976   36.0831 C   0  0  0  0  0  0  0  0  0  0  0  0
   29.9533  -20.2568   34.9438 O   0  0  0  0  0  0  0  0  0  0  0  0
   36.3257  -19.5281   34.2266 N   0  0  0  0  0  0  0  0  0  0  0  0
   36.1640  -20.3079   33.5556 H   0  0  0  0  0  0  0  0  0  0  0  0
   37.7173  -19.3523   34.6190 C   0  0  0  0  0  0  0  0  0  0  0  0
   38.6107  -19.0966   33.3993 C   0  0  0  0  0  0  0  0  0  0  0  0
   40.0256  -19.0409   33.8818 C   0  0  0  0  0  0  0  0  0  0  0  0
   40.4580  -20.3702   34.2688 N   0  0  0  0  0  0  0  0  0  0  0  0
   41.4396  -20.8481   33.3476 C   0  0  0  0  0  0  0  0  0  0  0  0
   39.3335  -21.2724   34.4273 C   0  0  0  0  0  0  0  0  0  0  0  0
   38.2762  -20.6086   35.2615 C   0  0  0  0  0  0  0  0  0  0  0  0
   31.8837  -21.9499   33.9532 O   0  0  0  0  0  0  0  0  0  0  0  0
   31.8958  -23.0379   34.8289 C   0  0  0  0  0  0  0  0  0  0  0  0
 17 18  1  0  0  0
 18  1  1  0  0  0
  1  2  2  0  0  0
  2  3  1  0  0  0
  3  4  2  0  0  0
  4  5  1  0  0  0
  5  6  2  0  0  0
  6  7  1  0  0  0
  7 19  1  0  0  0
 19 21  1  0  0  0
 21 22  1  0  0  0
 22 23  1  0  0  0
 23 24  1  0  0  0
 24 25  1  0  0  0
 24 26  1  0  0  0
 26 27  1  0  0  0
  7  8  2  0  0  0
  8  9  1  0  0  0
  9 10  2  0  0  0
 10 28  1  0  0  0
 28 29  1  0  0  0
  5 11  1  0  0  0
 11 12  1  0  0  0
 12 13  1  0  0  0
 13 14  1  0  0  0
 14 15  1  0  0  0
 15 16  1  0  0  0
 10  1  1  0  0  0
 16 11  1  0  0  0
  8  3  1  0  0  0
 27 21  1  0  0  0
 19 20  1  0  0  0
M  END
> <minimizedAffinity>
-7.07848

> <CNNscore>
0.7364703417

> <CNNaffinity>
5.8724660873

> <CNN_VS>
4.3248972893

> <CNNaffinity_variance>
0.1159698144

$$$$
[H]c1c(N2C([H])([H])C([H])([H])OC([H])([H])C2([H])[H])nc2c([H])c(OC([H])([H])[H])c(OC([H])([H])[H])c([H])c2c1N([H])C1([H])C([H])([H])C([H])([H])N(C([H])([H])[H])C([H])([H])C1([H])[H]


 29 32  0  0  0  0  0  0  0  0999 V2000
   34.8190  -14.7525   36.2380 C   0  0  0  0  0  0  0  0  0  0  0  0
   34.0886  -15.9035   36.0446 C   0  0  0  0  0  0  0  0  0  0  0  0
   34.6641  -17.1581   36.0595 C   0  0  0  0  0  0  0  0  0  0  0  0
   33.9120  -18.2564   35.8653 N   0  0  0  0  0  0  0  0  0  0  0  0
   34.4316  -19.4962   35.8714 C   0  0  0  0  0  0  0  0  0  0  0  0
   35.7749  -19.6708   36.0815 C   0  0  0  0  0  0  0  0  0  0  0  0
   36.5841  -18.5763   36.2847 C   0  0  0  0  0  0  0  0  0  0  0  0
   36.0389  -17.3008   36.2768 C   0  0  0  0  0  0  0  0  0  0  0  0
   36.7900  -16.1654   36.4724 C   0  0  0  0  0  0  0  0  0  0  0  0
   36.1853  -14.9080   36.4529 C   0  0  0  0  0  0  0  0  0  0  0  0
   33.5422  -20.6118   35.6546 N   0  0  0  0  0  0  0  0  0  0  0  0
   33.6537  -21.7460   36.5458 C   0  0  0  0  0  0  0  0  0  0  0  0
   32.8926  -22.9547   36.0882 C   0  0  0  0  0  0  0  0  0  0  0  0
   31.7473  -22.6909   35.3796 O   0  0  0  0  0  0  0  0  0  0  0  0
   31.9775  -21.8996   34.2571 C   0  0  0  0  0  0  0  0  0  0  0  0
   32.5863  -20.5817   34.5907 C   0  0  0  0  0  0  0  0  0  0  0  0
   32.9665  -13.1602   36.5342 C   0  0  0  0  0  0  0  0  0  0  0  0
   34.2869  -13.4729   36.2319 O   0  0  0  0  0  0  0  0  0  0  0  0
   37.9651  -18.7686   36.5133 N   0  0  0  0  0  0  0  0  0  0  0  0
   38.3990  -18.9388   37.4445 H   0  0  0  0  0  0  0  0  0  0  0  0
   38.9111  -18.7409   35.4061 C   0  0  0  0  0  0  0  0  0  0  0  0
   38.5894  -19.8273   34.3729 C   0  0  0  0  0  0  0  0  0  0  0  0
   39.6691  -19.7976   33.3378 C   0  0  0  0  0  0  0  0  0  0  0  0
   40.9001  -20.3117   33.9072 N   0  0  0  0  0  0  0  0  0  0  0  0
   41.2181  -21.5727   33.3161 C   0  0  0  0  0  0  0  0  0  0  0  0
   40.8405  -20.3566   35.3556 C   0  0  0  0  0  0  0  0  0  0  0  0
   40.3225  -19.0461   35.8736 C   0  0  0  0  0  0  0  0  0  0  0  0
   36.9867  -13.7993   36.6553 O   0  0  0  0  0  0  0  0  0  0  0  0
   37.7617  -13.7008   37.8130 C   0  0  0  0  0  0  0  0  0  0  0  0
 17 18  1  0  0  0
 18  1  1  0  0  0
  1  2  2  0  0  0
  2  3  1  0  0  0
  3  4  2  0  0  0
  4  5  1  0  0  0
  5  6  2  0  0  0
  6  7  1  0  0  0
  7 19  1  0  0  0
 19 21  1  0  0  0
 21 22  1  0  0  0
 22 23  1  0  0  0
 23 24  1  0  0  0
 24 25  1  0  0  0
 24 26  1  0  0  0
 26 27  1  0  0  0
  7  8  2  0  0  0
  8  9  1  0  0  0
  9 10  2  0  0  0
 10 28  1  0  0  0
 28 29  1  0  0  0
  5 11  1  0  0  0
 11 12  1  0  0  0
 12 13  1  0  0  0
 13 14  1  0  0  0
 14 15  1  0  0  0
 15 16  1  0  0  0
 10  1  1  0  0  0
 16 11  1  0  0  0
  8  3  1  0  0  0
 27 21  1  0  0  0
 19 20  1  0  0  0
M  END
> <minimizedAffinity>
-6.50799

> <CNNscore>
0.5834032297

> <CNNaffinity>
5.6006484032

> <CNN_VS>
3.2674362659

> <CNNaffinity_variance>
0.0655478388

$$$$
[H]c1c(N2C([H])([H])C([H])([H])OC([H])([H])C2([H])[H])nc2c([H])c(OC([H])([H])[H])c(OC([H])([H])[H])c([H])c2c1N([H])C1([H])C([H])([H])C([H])([H])N(C([H])([H])[H])C([H])([H])C1([H])[H]


 29 32  0  0  0  0  0  0  0  0999 V2000
   32.1667  -19.3865   34.7646 C   0  0  0  0  0  0  0  0  0  0  0  0
   32.6711  -18.1446   35.0793 C   0  0  0  0  0  0  0  0  0  0  0  0
   33.9298  -17.9706   35.6185 C   0  0  0  0  0  0  0  0  0  0  0  0
   34.3823  -16.7381   35.9115 N   0  0  0  0  0  0  0  0  0  0  0  0
   35.6006  -16.5238   36.4380 C   0  0  0  0  0  0  0  0  0  0  0  0
   36.4287  -17.5859   36.6934 C   0  0  0  0  0  0  0  0  0  0  0  0
   36.0085  -18.8655   36.4101 C   0  0  0  0  0  0  0  0  0  0  0  0
   34.7497  -19.0768   35.8670 C   0  0  0  0  0  0  0  0  0  0  0  0
   34.2679  -20.3281   35.5610 C   0  0  0  0  0  0  0  0  0  0  0  0
   32.9920  -20.4786   35.0165 C   0  0  0  0  0  0  0  0  0  0  0  0
   35.9959  -15.1641   36.7166 N   0  0  0  0  0  0  0  0  0  0  0  0
   35.1405  -14.1013   36.2352 C   0  0  0  0  0  0  0  0  0  0  0  0
   35.7565  -12.7369   36.3284 C   0  0  0  0  0  0  0  0  0  0  0  0
   36.6269  -12.5585   37.3744 O   0  0  0  0  0  0  0  0  0  0  0  0
   37.6692  -13.4819   37.3725 C   0  0  0  0  0  0  0  0  0  0  0  0
   37.1955  -14.8923   37.4470 C   0  0  0  0  0  0  0  0  0  0  0  0
   29.7205  -19.5878   34.9393 C   0  0  0  0  0  0  0  0  0  0  0  0
   30.9112  -19.6113   34.2223 O   0  0  0  0  0  0  0  0  0  0  0  0
   36.8752  -19.9517   36.6653 N   0  0  0  0  0  0  0  0  0  0  0  0
   36.5881  -20.8590   37.0882 H   0  0  0  0  0  0  0  0  0  0  0  0
   38.2910  -19.8647   36.3344 C   0  0  0  0  0  0  0  0  0  0  0  0
   38.5145  -19.9563   34.8203 C   0  0  0  0  0  0  0  0  0  0  0  0
   39.9917  -19.9713   34.5837 C   0  0  0  0  0  0  0  0  0  0  0  0
   40.5394  -21.2406   35.0224 N   0  0  0  0  0  0  0  0  0  0  0  0
   40.9719  -21.9988   33.8916 C   0  0  0  0  0  0  0  0  0  0  0  0
   39.6087  -21.9588   35.8719 C   0  0  0  0  0  0  0  0  0  0  0  0
   39.0708  -21.0278   36.9198 C   0  0  0  0  0  0  0  0  0  0  0  0
   32.5567  -21.7588   34.7273 O   0  0  0  0  0  0  0  0  0  0  0  0
   32.2401  -22.6390   35.7645 C   0  0  0  0  0  0  0  0  0  0  0  0
 17 18  1  0  0  0
 18  1  1  0  0  0
  1  2  2  0  0  0
  2  3  1  0  0  0
  3  4  2  0  0  0
  4  5  1  0  0  0
  5  6  2  0  0  0
  6  7  1  0  0  0
  7 19  1  0  0  0
 19 21  1  0  0  0
 21 22  1  0  0  0
 22 23  1  0  0  0
 23 24  1  0  0  0
 24 25  1  0  0  0
 24 26  1  0  0  0
 26 27  1  0  0  0
  7  8  2  0  0  0
  8  9  1  0  0  0
  9 10  2  0  0  0
 10 28  1  0  0  0
 28 29  1  0  0  0
  5 11  1  0  0  0
 11 12  1  0  0  0
 12 13  1  0  0  0
 13 14  1  0  0  0
 14 15  1  0  0  0
 15 16  1  0  0  0
 10  1  1  0  0  0
 16 11  1  0  0  0
  8  3  1  0  0  0
 27 21  1  0  0  0
 19 20  1  0  0  0
M  END
> <minimizedAffinity>
-5.72778

> <CNNscore>
0.4981629550

> <CNNaffinity>
5.5579652786

> <CNN_VS>
2.7687723637

> <CNNaffinity_variance>
0.1097857207

$$$$
[H]c1c(N2C([H])([H])C([H])([H])OC([H])([H])C2([H])[H])nc2c([H])c(OC([H])([H])[H])c(OC([H])([H])[H])c([H])c2c1N([H])C1([H])C([H])([H])C([H])([H])N(C([H])([H])[H])C([H])([H])C1([H])[H]


 29 32  0  0  0  0  0  0  0  0999 V2000
   36.9338  -18.4975   35.6794 C   0  0  0  0  0  0  0  0  0  0  0  0
   36.1667  -19.1178   36.6399 C   0  0  0  0  0  0  0  0  0  0  0  0
   36.3975  -20.4160   37.0485 C   0  0  0  0  0  0  0  0  0  0  0  0
   35.6222  -20.9831   37.9902 N   0  0  0  0  0  0  0  0  0  0  0  0
   35.8117  -22.2440   38.4165 C   0  0  0  0  0  0  0  0  0  0  0  0
   36.8265  -22.9973   37.8857 C   0  0  0  0  0  0  0  0  0  0  0  0
   37.6454  -22.4592   36.9193 C   0  0  0  0  0  0  0  0  0  0  0  0
   37.4423  -21.1573   36.4857 C   0  0  0  0  0  0  0  0  0  0  0  0
   38.2226  -20.5592   35.5240 C   0  0  0  0  0  0  0  0  0  0  0  0
   37.9697  -19.2455   35.1275 C   0  0  0  0  0  0  0  0  0  0  0  0
   34.9274  -22.7628   39.4321 N   0  0  0  0  0  0  0  0  0  0  0  0
   35.2095  -24.0785   39.9636 C   0  0  0  0  0  0  0  0  0  0  0  0
   34.1025  -24.6446   40.8024 C   0  0  0  0  0  0  0  0  0  0  0  0
   33.3613  -23.7196   41.4942 O   0  0  0  0  0  0  0  0  0  0  0  0
   32.7977  -22.7517   40.6667 C   0  0  0  0  0  0  0  0  0  0  0  0
   33.8141  -21.9894   39.8890 C   0  0  0  0  0  0  0  0  0  0  0  0
   36.4654  -16.1118   36.0596 C   0  0  0  0  0  0  0  0  0  0  0  0
   36.7412  -17.1982   35.2372 O   0  0  0  0  0  0  0  0  0  0  0  0
   38.6963  -23.2402   36.3884 N   0  0  0  0  0  0  0  0  0  0  0  0
   39.0688  -23.1616   35.4191 H   0  0  0  0  0  0  0  0  0  0  0  0
   39.3557  -24.2500   37.2051 C   0  0  0  0  0  0  0  0  0  0  0  0
   40.6959  -23.7386   37.7466 C   0  0  0  0  0  0  0  0  0  0  0  0
   41.3488  -24.8712   38.4740 C   0  0  0  0  0  0  0  0  0  0  0  0
   41.7969  -25.8662   37.5185 N   0  0  0  0  0  0  0  0  0  0  0  0
   43.2245  -25.8842   37.4708 C   0  0  0  0  0  0  0  0  0  0  0  0
   41.1826  -25.6733   36.2189 C   0  0  0  0  0  0  0  0  0  0  0  0
   39.7033  -25.4828   36.3908 C   0  0  0  0  0  0  0  0  0  0  0  0
   38.7846  -18.6923   34.1569 O   0  0  0  0  0  0  0  0  0  0  0  0
   39.3370  -19.5044   33.1639 C   0  0  0  0  0  0  0  0  0  0  0  0
 17 18  1  0  0  0
 18  1  1  0  0  0
  1  2  2  0  0  0
  2  3  1  0  0  0
  3  4  2  0  0  0
  4  5  1  0  0  0
  5  6  2  0  0  0
  6  7  1  0  0  0
  7 19  1  0  0  0
 19 21  1  0  0  0
 21 22  1  0  0  0
 22 23  1  0  0  0
 23 24  1  0  0  0
 24 25  1  0  0  0
 24 26  1  0  0  0
 26 27  1  0  0  0
  7  8  2  0  0  0
  8  9  1  0  0  0
  9 10  2  0  0  0
 10 28  1  0  0  0
 28 29  1  0  0  0
  5 11  1  0  0  0
 11 12  1  0  0  0
 12 13  1  0  0  0
 13 14  1  0  0  0
 14 15  1  0  0  0
 15 16  1  0  0  0
 10  1  1  0  0  0
 16 11  1  0  0  0
  8  3  1  0  0  0
 27 21  1  0  0  0
 19 20  1  0  0  0
M  END
> <minimizedAffinity>
-2.82245

> <CNNscore>
0.4507084489

> <CNNaffinity>
4.3813157082

> <CNN_VS>
1.9746960402

> <CNNaffinity_variance>
0.1664544791

$$$$
[H]c1c(N2C([H])([H])C([H])([H])OC([H])([H])C2([H])[H])nc2c([H])c(OC([H])([H])[H])c(OC([H])([H])[H])c([H])c2c1N([H])C1([H])C([H])([H])C([H])([H])N(C([H])([H])[H])C([H])([H])C1([H])[H]


 29 32  0  0  0  0  0  0  0  0999 V2000
   31.6056  -19.9713   35.0979 C   0  0  0  0  0  0  0  0  0  0  0  0
   31.9217  -18.6448   35.2884 C   0  0  0  0  0  0  0  0  0  0  0  0
   33.2049  -18.2215   35.5708 C   0  0  0  0  0  0  0  0  0  0  0  0
   33.4686  -16.9147   35.7501 N   0  0  0  0  0  0  0  0  0  0  0  0
   34.7029  -16.4598   36.0272 C   0  0  0  0  0  0  0  0  0  0  0  0
   35.7460  -17.3427   36.1352 C   0  0  0  0  0  0  0  0  0  0  0  0
   35.5239  -18.6896   35.9599 C   0  0  0  0  0  0  0  0  0  0  0  0
   34.2469  -19.1496   35.6743 C   0  0  0  0  0  0  0  0  0  0  0  0
   33.9559  -20.4809   35.4882 C   0  0  0  0  0  0  0  0  0  0  0  0
   32.6509  -20.8843   35.2036 C   0  0  0  0  0  0  0  0  0  0  0  0
   34.8852  -15.0389   36.2013 N   0  0  0  0  0  0  0  0  0  0  0  0
   36.2384  -14.5434   36.3292 C   0  0  0  0  0  0  0  0  0  0  0  0
   36.3218  -13.1135   36.7741 C   0  0  0  0  0  0  0  0  0  0  0  0
   35.2850  -12.3124   36.3656 O   0  0  0  0  0  0  0  0  0  0  0  0
   34.0409  -12.7957   36.7629 C   0  0  0  0  0  0  0  0  0  0  0  0
   33.7556  -14.1621   36.2426 C   0  0  0  0  0  0  0  0  0  0  0  0
   29.3621  -20.7318   35.7637 C   0  0  0  0  0  0  0  0  0  0  0  0
   30.3344  -20.4439   34.8127 O   0  0  0  0  0  0  0  0  0  0  0  0
   36.6086  -19.5893   36.0606 N   0  0  0  0  0  0  0  0  0  0  0  0
   36.9657  -20.1846   35.2844 H   0  0  0  0  0  0  0  0  0  0  0  0
   37.3291  -19.7449   37.3169 C   0  0  0  0  0  0  0  0  0  0  0  0
   38.4549  -20.7778   37.1878 C   0  0  0  0  0  0  0  0  0  0  0  0
   39.0624  -20.9530   38.5437 C   0  0  0  0  0  0  0  0  0  0  0  0
   38.1329  -21.6614   39.4028 N   0  0  0  0  0  0  0  0  0  0  0  0
   38.6345  -22.9686   39.6860 C   0  0  0  0  0  0  0  0  0  0  0  0
   36.7929  -21.6695   38.8479 C   0  0  0  0  0  0  0  0  0  0  0  0
   36.4257  -20.2803   38.4127 C   0  0  0  0  0  0  0  0  0  0  0  0
   32.4133  -22.2349   35.0254 O   0  0  0  0  0  0  0  0  0  0  0  0
   32.7032  -23.1356   36.0527 C   0  0  0  0  0  0  0  0  0  0  0  0
 17 18  1  0  0  0
 18  1  1  0  0  0
  1  2  2  0  0  0
  2  3  1  0  0  0
  3  4  2  0  0  0
  4  5  1  0  0  0
  5  6  2  0  0  0
  6  7  1  0  0  0
  7 19  1  0  0  0
 19 21  1  0  0  0
 21 22  1  0  0  0
 22 23  1  0  0  0
 23 24  1  0  0  0
 24 25  1  0  0  0
 24 26  1  0  0  0
 26 27  1  0  0  0
  7  8  2  0  0  0
  8  9  1  0  0  0
  9 10  2  0  0  0
 10 28  1  0  0  0
 28 29  1  0  0  0
  5 11  1  0  0  0
 11 12  1  0  0  0
 12 13  1  0  0  0
 13 14  1  0  0  0
 14 15  1  0  0  0
 15 16  1  0  0  0
 10  1  1  0  0  0
 16 11  1  0  0  0
  8  3  1  0  0  0
 27 21  1  0  0  0
 19 20  1  0  0  0
M  END
> <minimizedAffinity>
-5.88451

> <CNNscore>
0.4359450042

> <CNNaffinity>
5.0591993332

> <CNN_VS>
2.2055327892

> <CNNaffinity_variance>
0.4420267642

$$$$
[H]c1c(N2C([H])([H])C([H])([H])OC([H])([H])C2([H])[H])nc2c([H])c(OC([H])([H])[H])c(OC([H])([H])[H])c([H])c2c1N([H])C1([H])C([H])([H])C([H])([H])N(C([H])([H])[H])C([H])([H])C1([H])[H]


 29 32  0  0  0  0  0  0  0  0999 V2000
   37.3653  -18.7180   35.3252 C   0  0  0  0  0  0  0  0  0  0  0  0
   38.3086  -19.5713   34.7981 C   0  0  0  0  0  0  0  0  0  0  0  0
   39.0952  -20.3858   35.5877 C   0  0  0  0  0  0  0  0  0  0  0  0
   40.0054  -21.2042   35.0299 N   0  0  0  0  0  0  0  0  0  0  0  0
   40.7919  -22.0128   35.7613 C   0  0  0  0  0  0  0  0  0  0  0  0
   40.6787  -22.0197   37.1274 C   0  0  0  0  0  0  0  0  0  0  0  0
   39.7612  -21.1988   37.7426 C   0  0  0  0  0  0  0  0  0  0  0  0
   38.9540  -20.3679   36.9797 C   0  0  0  0  0  0  0  0  0  0  0  0
   38.0183  -19.5234   37.5299 C   0  0  0  0  0  0  0  0  0  0  0  0
   37.2348  -18.7096   36.7109 C   0  0  0  0  0  0  0  0  0  0  0  0
   41.7376  -22.8555   35.0700 N   0  0  0  0  0  0  0  0  0  0  0  0
   42.3032  -22.3611   33.8336 C   0  0  0  0  0  0  0  0  0  0  0  0
   43.0551  -23.3975   33.0526 C   0  0  0  0  0  0  0  0  0  0  0  0
   43.6754  -24.3619   33.8067 O   0  0  0  0  0  0  0  0  0  0  0  0
   42.7955  -25.0379   34.6481 C   0  0  0  0  0  0  0  0  0  0  0  0
   42.0952  -24.1340   35.6029 C   0  0  0  0  0  0  0  0  0  0  0  0
   36.7845  -17.5306   33.2496 C   0  0  0  0  0  0  0  0  0  0  0  0
   36.5533  -17.8827   34.5744 O   0  0  0  0  0  0  0  0  0  0  0  0
   39.6440  -21.2234   39.1504 N   0  0  0  0  0  0  0  0  0  0  0  0
   40.1007  -20.5499   39.8003 H   0  0  0  0  0  0  0  0  0  0  0  0
   38.8365  -22.2406   39.8098 C   0  0  0  0  0  0  0  0  0  0  0  0
   38.0025  -23.0321   38.7954 C   0  0  0  0  0  0  0  0  0  0  0  0
   37.1282  -23.9701   39.5660 C   0  0  0  0  0  0  0  0  0  0  0  0
   36.0935  -23.2171   40.2486 N   0  0  0  0  0  0  0  0  0  0  0  0
   34.8224  -23.4952   39.6590 C   0  0  0  0  0  0  0  0  0  0  0  0
   36.4060  -21.8016   40.2955 C   0  0  0  0  0  0  0  0  0  0  0  0
   37.8239  -21.6196   40.7546 C   0  0  0  0  0  0  0  0  0  0  0  0
   36.3090  -17.8794   37.3158 O   0  0  0  0  0  0  0  0  0  0  0  0
   36.5746  -16.5142   37.4433 C   0  0  0  0  0  0  0  0  0  0  0  0
 17 18  1  0  0  0
 18  1  1  0  0  0
  1  2  2  0  0  0
  2  3  1  0  0  0
  3  4  2  0  0  0
  4  5  1  0  0  0
  5  6  2  0  0  0
  6  7  1  0  0  0
  7 19  1  0  0  0
 19 21  1  0  0  0
 21 22  1  0  0  0
 22 23  1  0  0  0
 23 24  1  0  0  0
 24 25  1  0  0  0
 24 26  1  0  0  0
 26 27  1  0  0  0
  7  8  2  0  0  0
  8  9  1  0  0  0
  9 10  2  0  0  0
 10 28  1  0  0  0
 28 29  1  0  0  0
  5 11  1  0  0  0
 11 12  1  0  0  0
 12 13  1  0  0  0
 13 14  1  0  0  0
 14 15  1  0  0  0
 15 16  1  0  0  0
 10  1  1  0  0  0
 16 11  1  0  0  0
  8  3  1  0  0  0
 27 21  1  0  0  0
 19 20  1  0  0  0
M  END
> <minimizedAffinity>
-2.91643

> <CNNscore>
0.4208984673

> <CNNaffinity>
4.6149730682

> <CNN_VS>
1.9424351454

> <CNNaffinity_variance>
0.1899650246

$$$$
[H]c1c(N2C([H])([H])C([H])([H])OC([H])([H])C2([H])[H])nc2c([H])c(OC([H])([H])[H])c(OC([H])([H])[H])c([H])c2c1N([H])C1([H])C([H])([H])C([H])([H])N(C([H])([H])[H])C([H])([H])C1([H])[H]


 29 32  0  0  0  0  0  0  0  0999 V2000
   32.2015  -20.1337   35.3909 C   0  0  0  0  0  0  0  0  0  0  0  0
   32.6699  -18.8485   35.5476 C   0  0  0  0  0  0  0  0  0  0  0  0
   33.9059  -18.5716   36.0964 C   0  0  0  0  0  0  0  0  0  0  0  0
   34.3233  -17.2999   36.2313 N   0  0  0  0  0  0  0  0  0  0  0  0
   35.5185  -16.9859   36.7606 C   0  0  0  0  0  0  0  0  0  0  0  0
   36.3587  -17.9825   37.1848 C   0  0  0  0  0  0  0  0  0  0  0  0
   35.9741  -19.2987   37.0670 C   0  0  0  0  0  0  0  0  0  0  0  0
   34.7389  -19.6130   36.5195 C   0  0  0  0  0  0  0  0  0  0  0  0
   34.2930  -20.9058   36.3734 C   0  0  0  0  0  0  0  0  0  0  0  0
   33.0396  -21.1606   35.8157 C   0  0  0  0  0  0  0  0  0  0  0  0
   35.8766  -15.5916   36.8620 N   0  0  0  0  0  0  0  0  0  0  0  0
   35.0265  -14.6272   36.1986 C   0  0  0  0  0  0  0  0  0  0  0  0
   35.6137  -13.2490   36.1256 C   0  0  0  0  0  0  0  0  0  0  0  0
   36.4309  -12.9053   37.1733 O   0  0  0  0  0  0  0  0  0  0  0  0
   37.4880  -13.7950   37.3473 C   0  0  0  0  0  0  0  0  0  0  0  0
   37.0358  -15.1919   37.5988 C   0  0  0  0  0  0  0  0  0  0  0  0
   29.7604  -19.8816   35.2116 C   0  0  0  0  0  0  0  0  0  0  0  0
   30.9699  -20.4612   34.8462 O   0  0  0  0  0  0  0  0  0  0  0  0
   36.8533  -20.3183   37.4955 N   0  0  0  0  0  0  0  0  0  0  0  0
   36.8964  -20.7034   38.4621 H   0  0  0  0  0  0  0  0  0  0  0  0
   37.7970  -20.9233   36.5654 C   0  0  0  0  0  0  0  0  0  0  0  0
   38.1991  -22.3317   37.0191 C   0  0  0  0  0  0  0  0  0  0  0  0
   39.2468  -22.8270   36.0730 C   0  0  0  0  0  0  0  0  0  0  0  0
   40.4823  -22.1005   36.2952 N   0  0  0  0  0  0  0  0  0  0  0  0
   41.4611  -22.9712   36.8649 C   0  0  0  0  0  0  0  0  0  0  0  0
   40.2617  -20.8979   37.0753 C   0  0  0  0  0  0  0  0  0  0  0  0
   39.0966  -20.1415   36.5057 C   0  0  0  0  0  0  0  0  0  0  0  0
   32.6402  -22.4786   35.6917 O   0  0  0  0  0  0  0  0  0  0  0  0
   31.9356  -22.8903   34.5583 C   0  0  0  0  0  0  0  0  0  0  0  0
 17 18  1  0  0  0
 18  1  1  0  0  0
  1  2  2  0  0  0
  2  3  1  0  0  0
  3  4  2  0  0  0
  4  5  1  0  0  0
  5  6  2  0  0  0
  6  7  1  0  0  0
  7 19  1  0  0  0
 19 21  1  0  0  0
 21 22  1  0  0  0
 22 23  1  0  0  0
 23 24  1  0  0  0
 24 25  1  0  0  0
 24 26  1  0  0  0
 26 27  1  0  0  0
  7  8  2  0  0  0
  8  9  1  0  0  0
  9 10  2  0  0  0
 10 28  1  0  0  0
 28 29  1  0  0  0
  5 11  1  0  0  0
 11 12  1  0  0  0
 12 13  1  0  0  0
 13 14  1  0  0  0
 14 15  1  0  0  0
 15 16  1  0  0  0
 10  1  1  0  0  0
 16 11  1  0  0  0
  8  3  1  0  0  0
 27 21  1  0  0  0
 19 20  1  0  0  0
M  END
> <minimizedAffinity>
-5.37041

> <CNNscore>
0.4069523811

> <CNNaffinity>
5.1663560867

> <CNN_VS>
2.1024608612

> <CNNaffinity_variance>
0.1690721810

$$$$
[H]c1c(OC([H])([H])C([H])([H])C([H])([H])N2C([H])([H])C([H])([H])C([H])([H])C([H])([H])C2([H])[H])c(OC([H])([H])[H])c([H])c2c(N([H])C3([H])C([H])([H])C([H])([H])N(C4([H])C([H])([H])C([H])([H])C([H])([H])C([H])([H])C4([H])[H])C([H])([H])C3([H])[H])nc(N3C([H])([H])C([H])([H])N(C([H])([H])[H])C([H])([H])C([H])([H])C3([H])[H])nc12


 44 49  0  0  0  0  0  0  0  0999 V2000
   35.7895  -14.5185   37.1279 C   0  0  0  0  0  0  0  0  0  0  0  0
   36.0967  -15.8917   37.1673 C   0  0  0  0  0  0  0  0  0  0  0  0
   35.2812  -16.8232   36.5747 C   0  0  0  0  0  0  0  0  0  0  0  0
   35.5580  -18.1674   36.6051 C   0  0  0  0  0  0  0  0  0  0  0  0
   34.7043  -19.0516   35.9995 N   0  0  0  0  0  0  0  0  0  0  0  0
   33.5929  -18.6648   35.3676 C   0  0  0  0  0  0  0  0  0  0  0  0
   33.3198  -17.3503   35.3369 N   0  0  0  0  0  0  0  0  0  0  0  0
   34.1154  -16.4310   35.9111 C   0  0  0  0  0  0  0  0  0  0  0  0
   33.8345  -15.0828   35.8848 C   0  0  0  0  0  0  0  0  0  0  0  0
   34.6413  -14.1283   36.4748 C   0  0  0  0  0  0  0  0  0  0  0  0
   32.7109  -19.6061   34.7364 N   0  0  0  0  0  0  0  0  0  0  0  0
   33.1608  -20.9608   34.7450 C   0  0  0  0  0  0  0  0  0  0  0  0
   32.5740  -21.7849   35.8587 C   0  0  0  0  0  0  0  0  0  0  0  0
   31.4214  -21.0081   36.5041 C   0  0  0  0  0  0  0  0  0  0  0  0
   30.4622  -20.7381   35.4830 N   0  0  0  0  0  0  0  0  0  0  0  0
   29.2012  -21.3921   35.6214 C   0  0  0  0  0  0  0  0  0  0  0  0
   30.3465  -19.3426   35.1245 C   0  0  0  0  0  0  0  0  0  0  0  0
   31.5068  -19.0283   34.1920 C   0  0  0  0  0  0  0  0  0  0  0  0
   37.9978  -13.7054   37.6330 C   0  0  0  0  0  0  0  0  0  0  0  0
   36.5901  -13.5554   37.7152 O   0  0  0  0  0  0  0  0  0  0  0  0
   36.7209  -18.6275   37.2539 N   0  0  0  0  0  0  0  0  0  0  0  0
   36.9855  -18.3441   38.2038 H   0  0  0  0  0  0  0  0  0  0  0  0
   37.6627  -19.5625   36.6143 C   0  0  0  0  0  0  0  0  0  0  0  0
   37.9548  -20.7402   37.4816 C   0  0  0  0  0  0  0  0  0  0  0  0
   39.1653  -20.5207   38.3720 C   0  0  0  0  0  0  0  0  0  0  0  0
   40.2825  -20.0212   37.6863 N   0  0  0  0  0  0  0  0  0  0  0  0
   40.1677  -19.6755   36.3289 C   0  0  0  0  0  0  0  0  0  0  0  0
   38.8938  -18.8759   36.1353 C   0  0  0  0  0  0  0  0  0  0  0  0
   41.5257  -19.9282   38.3214 C   0  0  0  0  0  0  0  0  0  0  0  0
   42.3028  -18.7240   37.8362 C   0  0  0  0  0  0  0  0  0  0  0  0
   43.7675  -18.8781   38.1926 C   0  0  0  0  0  0  0  0  0  0  0  0
   43.9036  -19.2275   39.6468 C   0  0  0  0  0  0  0  0  0  0  0  0
   42.5816  -19.0246   40.3909 C   0  0  0  0  0  0  0  0  0  0  0  0
   41.5018  -19.9087   39.8181 C   0  0  0  0  0  0  0  0  0  0  0  0
   34.3347  -12.7806   36.4355 O   0  0  0  0  0  0  0  0  0  0  0  0
   33.8886  -12.0187   37.5107 C   0  0  0  0  0  0  0  0  0  0  0  0
   32.4681  -12.4824   37.8551 C   0  0  0  0  0  0  0  0  0  0  0  0
   31.4417  -11.6201   37.1870 C   0  0  0  0  0  0  0  0  0  0  0  0
   30.1433  -11.9512   37.7240 N   0  0  0  0  0  0  0  0  0  0  0  0
   30.2849  -12.6414   38.9604 C   0  0  0  0  0  0  0  0  0  0  0  0
   29.0162  -12.6225   39.7873 C   0  0  0  0  0  0  0  0  0  0  0  0
   27.8035  -12.5595   38.8678 C   0  0  0  0  0  0  0  0  0  0  0  0
   27.8588  -11.2115   38.1611 C   0  0  0  0  0  0  0  0  0  0  0  0
   29.2401  -10.8430   37.7280 C   0  0  0  0  0  0  0  0  0  0  0  0
 19 20  1  0  0  0
 20  1  1  0  0  0
  1  2  2  0  0  0
  2  3  1  0  0  0
  3  4  2  0  0  0
  4 21  1  0  0  0
 21 23  1  0  0  0
 23 24  1  0  0  0
 24 25  1  0  0  0
 25 26  1  0  0  0
 26 27  1  0  0  0
 27 28  1  0  0  0
 26 29  1  0  0  0
 29 30  1  0  0  0
 30 31  1  0  0  0
 31 32  1  0  0  0
 32 33  1  0  0  0
 33 34  1  0  0  0
  4  5  1  0  0  0
  5  6  2  0  0  0
  6  7  1  0  0  0
  7  8  2  0  0  0
  8  9  1  0  0  0
  9 10  2  0  0  0
 10 35  1  0  0  0
 35 36  1  0  0  0
 36 37  1  0  0  0
 37 38  1  0  0  0
 38 39  1  0  0  0
 39 40  1  0  0  0
 40 41  1  0  0  0
 41 42  1  0  0  0
 42 43  1  0  0  0
 43 44  1  0  0  0
  6 11  1  0  0  0
 11 12  1  0  0  0
 12 13  1  0  0  0
 13 14  1  0  0  0
 14 15  1  0  0  0
 15 16  1  0  0  0
 15 17  1  0  0  0
 17 18  1  0  0  0
 10  1  1  0  0  0
 44 39  1  0  0  0
 18 11  1  0  0  0
  8  3  1  0  0  0
 28 23  1  0  0  0
 34 29  1  0  0  0
 21 22  1  0  0  0
M  END
> <minimizedAffinity>
-9.28842

> <CNNscore>
0.6099478602

> <CNNaffinity>
7.3714761734

> <CNN_VS>
4.4962162971

> <CNNaffinity_variance>
0.2771064639

$$$$
[H]c1c(OC([H])([H])C([H])([H])C([H])([H])N2C([H])([H])C([H])([H])C([H])([H])C([H])([H])C2([H])[H])c(OC([H])([H])[H])c([H])c2c(N([H])C3([H])C([H])([H])C([H])([H])N(C4([H])C([H])([H])C([H])([H])C([H])([H])C([H])([H])C4([H])[H])C([H])([H])C3([H])[H])nc(N3C([H])([H])C([H])([H])N(C([H])([H])[H])C([H])([H])C([H])([H])C3([H])[H])nc12


 44 49  0  0  0  0  0  0  0  0999 V2000
   36.5637  -14.9362   37.4966 C   0  0  0  0  0  0  0  0  0  0  0  0
   36.8526  -16.2326   37.0301 C   0  0  0  0  0  0  0  0  0  0  0  0
   35.9046  -16.9874   36.3856 C   0  0  0  0  0  0  0  0  0  0  0  0
   36.1623  -18.2554   35.9272 C   0  0  0  0  0  0  0  0  0  0  0  0
   35.1747  -18.9638   35.2945 N   0  0  0  0  0  0  0  0  0  0  0  0
   33.9481  -18.4738   35.0966 C   0  0  0  0  0  0  0  0  0  0  0  0
   33.6935  -17.2336   35.5446 N   0  0  0  0  0  0  0  0  0  0  0  0
   34.6176  -16.4860   36.1731 C   0  0  0  0  0  0  0  0  0  0  0  0
   34.3569  -15.2157   36.6375 C   0  0  0  0  0  0  0  0  0  0  0  0
   35.2962  -14.4387   37.2890 C   0  0  0  0  0  0  0  0  0  0  0  0
   32.9260  -19.2303   34.4292 N   0  0  0  0  0  0  0  0  0  0  0  0
   33.2657  -20.5858   34.1378 C   0  0  0  0  0  0  0  0  0  0  0  0
   32.7520  -21.5690   35.1543 C   0  0  0  0  0  0  0  0  0  0  0  0
   31.7490  -20.8631   36.0729 C   0  0  0  0  0  0  0  0  0  0  0  0
   30.6996  -20.3545   35.2508 N   0  0  0  0  0  0  0  0  0  0  0  0
   29.4164  -20.9515   35.4347 C   0  0  0  0  0  0  0  0  0  0  0  0
   30.6525  -18.9124   35.1644 C   0  0  0  0  0  0  0  0  0  0  0  0
   31.7152  -18.4951   34.1588 C   0  0  0  0  0  0  0  0  0  0  0  0
   38.3060  -13.2801   37.3766 C   0  0  0  0  0  0  0  0  0  0  0  0
   37.4963  -14.1506   38.1497 O   0  0  0  0  0  0  0  0  0  0  0  0
   37.4421  -18.8169   36.1055 N   0  0  0  0  0  0  0  0  0  0  0  0
   38.3113  -18.2811   36.0056 H   0  0  0  0  0  0  0  0  0  0  0  0
   37.6392  -20.2350   36.4529 C   0  0  0  0  0  0  0  0  0  0  0  0
   36.4585  -20.8041   37.1647 C   0  0  0  0  0  0  0  0  0  0  0  0
   36.5719  -20.6762   38.6737 C   0  0  0  0  0  0  0  0  0  0  0  0
   37.8085  -21.1020   39.1810 N   0  0  0  0  0  0  0  0  0  0  0  0
   38.8290  -21.4855   38.2941 C   0  0  0  0  0  0  0  0  0  0  0  0
   38.9184  -20.4600   37.1806 C   0  0  0  0  0  0  0  0  0  0  0  0
   38.0126  -21.2134   40.5608 C   0  0  0  0  0  0  0  0  0  0  0  0
   36.8092  -21.8210   41.2478 C   0  0  0  0  0  0  0  0  0  0  0  0
   36.8679  -21.5387   42.7353 C   0  0  0  0  0  0  0  0  0  0  0  0
   38.2166  -21.9219   43.2734 C   0  0  0  0  0  0  0  0  0  0  0  0
   39.0040  -22.7499   42.2550 C   0  0  0  0  0  0  0  0  0  0  0  0
   39.2351  -21.9644   40.9880 C   0  0  0  0  0  0  0  0  0  0  0  0
   35.0074  -13.1666   37.7474 O   0  0  0  0  0  0  0  0  0  0  0  0
   34.3737  -12.1660   37.0176 C   0  0  0  0  0  0  0  0  0  0  0  0
   33.0552  -11.8337   37.7265 C   0  0  0  0  0  0  0  0  0  0  0  0
   31.8852  -12.4052   36.9862 C   0  0  0  0  0  0  0  0  0  0  0  0
   30.6789  -11.7940   37.4911 N   0  0  0  0  0  0  0  0  0  0  0  0
   30.1478  -12.5670   38.5614 C   0  0  0  0  0  0  0  0  0  0  0  0
   29.1744  -11.7850   39.4184 C   0  0  0  0  0  0  0  0  0  0  0  0
   28.4761  -10.7292   38.5712 C   0  0  0  0  0  0  0  0  0  0  0  0
   29.5456   -9.7329   38.1431 C   0  0  0  0  0  0  0  0  0  0  0  0
   30.8242  -10.3945   37.7445 C   0  0  0  0  0  0  0  0  0  0  0  0
 19 20  1  0  0  0
 20  1  1  0  0  0
  1  2  2  0  0  0
  2  3  1  0  0  0
  3  4  2  0  0  0
  4 21  1  0  0  0
 21 23  1  0  0  0
 23 24  1  0  0  0
 24 25  1  0  0  0
 25 26  1  0  0  0
 26 27  1  0  0  0
 27 28  1  0  0  0
 26 29  1  0  0  0
 29 30  1  0  0  0
 30 31  1  0  0  0
 31 32  1  0  0  0
 32 33  1  0  0  0
 33 34  1  0  0  0
  4  5  1  0  0  0
  5  6  2  0  0  0
  6  7  1  0  0  0
  7  8  2  0  0  0
  8  9  1  0  0  0
  9 10  2  0  0  0
 10 35  1  0  0  0
 35 36  1  0  0  0
 36 37  1  0  0  0
 37 38  1  0  0  0
 38 39  1  0  0  0
 39 40  1  0  0  0
 40 41  1  0  0  0
 41 42  1  0  0  0
 42 43  1  0  0  0
 43 44  1  0  0  0
  6 11  1  0  0  0
 11 12  1  0  0  0
 12 13  1  0  0  0
 13 14  1  0  0  0
 14 15  1  0  0  0
 15 16  1  0  0  0
 15 17  1  0  0  0
 17 18  1  0  0  0
 10  1  1  0  0  0
 44 39  1  0  0  0
 18 11  1  0  0  0
  8  3  1  0  0  0
 28 23  1  0  0  0
 34 29  1  0  0  0
 21 22  1  0  0  0
M  END
> <minimizedAffinity>
-7.93834

> <CNNscore>
0.5192769170

> <CNNaffinity>
7.4966621399

> <CNN_VS>
3.8928434849

> <CNNaffinity_variance>
0.0605301857

$$$$
[H]c1c(OC([H])([H])C([H])([H])C([H])([H])N2C([H])([H])C([H])([H])C([H])([H])C([H])([H])C2([H])[H])c(OC([H])([H])[H])c([H])c2c(N([H])C3([H])C([H])([H])C([H])([H])N(C4([H])C([H])([H])C([H])([H])C([H])([H])C([H])([H])C4([H])[H])C([H])([H])C3([H])[H])nc(N3C([H])([H])C([H])([H])N(C([H])([H])[H])C([H])([H])C([H])([H])C3([H])[H])nc12


 44 49  0  0  0  0  0  0  0  0999 V2000
   36.5190  -14.9232   37.5324 C   0  0  0  0  0  0  0  0  0  0  0  0
   36.7842  -16.2734   37.2354 C   0  0  0  0  0  0  0  0  0  0  0  0
   35.8629  -17.0559   36.5853 C   0  0  0  0  0  0  0  0  0  0  0  0
   36.0977  -18.3758   36.2903 C   0  0  0  0  0  0  0  0  0  0  0  0
   35.1381  -19.1093   35.6431 N   0  0  0  0  0  0  0  0  0  0  0  0
   33.9610  -18.5953   35.2767 C   0  0  0  0  0  0  0  0  0  0  0  0
   33.7290  -17.3042   35.5647 N   0  0  0  0  0  0  0  0  0  0  0  0
   34.6276  -16.5297   36.1974 C   0  0  0  0  0  0  0  0  0  0  0  0
   34.3894  -15.2068   36.4979 C   0  0  0  0  0  0  0  0  0  0  0  0
   35.3026  -14.4012   37.1517 C   0  0  0  0  0  0  0  0  0  0  0  0
   32.9680  -19.3790   34.5969 N   0  0  0  0  0  0  0  0  0  0  0  0
   33.2974  -20.7566   34.4202 C   0  0  0  0  0  0  0  0  0  0  0  0
   32.6998  -21.6592   35.4652 C   0  0  0  0  0  0  0  0  0  0  0  0
   31.6552  -20.8756   36.2671 C   0  0  0  0  0  0  0  0  0  0  0  0
   30.6711  -20.4075   35.3461 N   0  0  0  0  0  0  0  0  0  0  0  0
   29.3667  -20.9694   35.4862 C   0  0  0  0  0  0  0  0  0  0  0  0
   30.6595  -18.9742   35.1599 C   0  0  0  0  0  0  0  0  0  0  0  0
   31.7924  -18.6443   34.1995 C   0  0  0  0  0  0  0  0  0  0  0  0
   38.3464  -13.3618   37.4079 C   0  0  0  0  0  0  0  0  0  0  0  0
   37.4259  -14.1086   38.1863 O   0  0  0  0  0  0  0  0  0  0  0  0
   37.3258  -18.9651   36.6499 N   0  0  0  0  0  0  0  0  0  0  0  0
   37.4327  -19.6026   37.4467 H   0  0  0  0  0  0  0  0  0  0  0  0
   38.5705  -18.7107   35.9041 C   0  0  0  0  0  0  0  0  0  0  0  0
   38.3796  -18.8619   34.4326 C   0  0  0  0  0  0  0  0  0  0  0  0
   38.6721  -20.2718   33.9500 C   0  0  0  0  0  0  0  0  0  0  0  0
   39.8861  -20.7873   34.4276 N   0  0  0  0  0  0  0  0  0  0  0  0
   40.6402  -20.0457   35.3532 C   0  0  0  0  0  0  0  0  0  0  0  0
   39.7097  -19.5145   36.4263 C   0  0  0  0  0  0  0  0  0  0  0  0
   40.3864  -21.9998   33.9406 C   0  0  0  0  0  0  0  0  0  0  0  0
   41.8565  -21.8912   33.5994 C   0  0  0  0  0  0  0  0  0  0  0  0
   42.2616  -23.0372   32.6947 C   0  0  0  0  0  0  0  0  0  0  0  0
   41.8005  -24.3391   33.2847 C   0  0  0  0  0  0  0  0  0  0  0  0
   41.3456  -24.1592   34.7350 C   0  0  0  0  0  0  0  0  0  0  0  0
   40.1879  -23.1955   34.8190 C   0  0  0  0  0  0  0  0  0  0  0  0
   35.0371  -13.0759   37.4433 O   0  0  0  0  0  0  0  0  0  0  0  0
   34.1085  -12.2720   36.7899 C   0  0  0  0  0  0  0  0  0  0  0  0
   33.1598  -11.6978   37.8489 C   0  0  0  0  0  0  0  0  0  0  0  0
   32.3204  -12.7756   38.4631 C   0  0  0  0  0  0  0  0  0  0  0  0
   30.9299  -12.4213   38.3053 N   0  0  0  0  0  0  0  0  0  0  0  0
   30.1978  -12.7745   39.4733 C   0  0  0  0  0  0  0  0  0  0  0  0
   28.8718  -12.0493   39.5719 C   0  0  0  0  0  0  0  0  0  0  0  0
   28.3447  -11.7486   38.1747 C   0  0  0  0  0  0  0  0  0  0  0  0
   29.3143  -10.7575   37.5443 C   0  0  0  0  0  0  0  0  0  0  0  0
   30.7431  -11.0852   37.8321 C   0  0  0  0  0  0  0  0  0  0  0  0
 19 20  1  0  0  0
 20  1  1  0  0  0
  1  2  2  0  0  0
  2  3  1  0  0  0
  3  4  2  0  0  0
  4 21  1  0  0  0
 21 23  1  0  0  0
 23 24  1  0  0  0
 24 25  1  0  0  0
 25 26  1  0  0  0
 26 27  1  0  0  0
 27 28  1  0  0  0
 26 29  1  0  0  0
 29 30  1  0  0  0
 30 31  1  0  0  0
 31 32  1  0  0  0
 32 33  1  0  0  0
 33 34  1  0  0  0
  4  5  1  0  0  0
  5  6  2  0  0  0
  6  7  1  0  0  0
  7  8  2  0  0  0
  8  9  1  0  0  0
  9 10  2  0  0  0
 10 35  1  0  0  0
 35 36  1  0  0  0
 36 37  1  0  0  0
 37 38  1  0  0  0
 38 39  1  0  0  0
 39 40  1  0  0  0
 40 41  1  0  0  0
 41 42  1  0  0  0
 42 43  1  0  0  0
 43 44  1  0  0  0
  6 11  1  0  0  0
 11 12  1  0  0  0
 12 13  1  0  0  0
 13 14  1  0  0  0
 14 15  1  0  0  0
 15 16  1  0  0  0
 15 17  1  0  0  0
 17 18  1  0  0  0
 10  1  1  0  0  0
 44 39  1  0  0  0
 18 11  1  0  0  0
  8  3  1  0  0  0
 28 23  1  0  0  0
 34 29  1  0  0  0
 21 22  1  0  0  0
M  END
> <minimizedAffinity>
-8.80014

> <CNNscore>
0.5111792088

> <CNNaffinity>
7.2209777832

> <CNN_VS>
3.6912136078

> <CNNaffinity_variance>
0.2148006707

$$$$
[H]c1c(OC([H])([H])C([H])([H])C([H])([H])N2C([H])([H])C([H])([H])C([H])([H])C([H])([H])C2([H])[H])c(OC([H])([H])[H])c([H])c2c(N([H])C3([H])C([H])([H])C([H])([H])N(C4([H])C([H])([H])C([H])([H])C([H])([H])C([H])([H])C4([H])[H])C([H])([H])C3([H])[H])nc(N3C([H])([H])C([H])([H])N(C([H])([H])[H])C([H])([H])C([H])([H])C3([H])[H])nc12


 44 49  0  0  0  0  0  0  0  0999 V2000
   36.0656  -15.0498   36.1712 C   0  0  0  0  0  0  0  0  0  0  0  0
   36.3363  -16.1958   35.3998 C   0  0  0  0  0  0  0  0  0  0  0  0
   35.3467  -17.0917   35.0804 C   0  0  0  0  0  0  0  0  0  0  0  0
   35.5886  -18.2183   34.3343 C   0  0  0  0  0  0  0  0  0  0  0  0
   34.5615  -19.0796   34.0503 N   0  0  0  0  0  0  0  0  0  0  0  0
   33.3104  -18.8753   34.4711 C   0  0  0  0  0  0  0  0  0  0  0  0
   33.0715  -17.7739   35.2015 N   0  0  0  0  0  0  0  0  0  0  0  0
   34.0341  -16.8892   35.5152 C   0  0  0  0  0  0  0  0  0  0  0  0
   33.7919  -15.7616   36.2683 C   0  0  0  0  0  0  0  0  0  0  0  0
   34.7730  -14.8469   36.6015 C   0  0  0  0  0  0  0  0  0  0  0  0
   32.2458  -19.7882   34.1617 N   0  0  0  0  0  0  0  0  0  0  0  0
   32.6128  -21.1676   34.1483 C   0  0  0  0  0  0  0  0  0  0  0  0
   32.3024  -21.8875   35.4324 C   0  0  0  0  0  0  0  0  0  0  0  0
   31.4038  -21.0003   36.3006 C   0  0  0  0  0  0  0  0  0  0  0  0
   30.2225  -20.7228   35.5502 N   0  0  0  0  0  0  0  0  0  0  0  0
   29.0123  -21.2815   36.0604 C   0  0  0  0  0  0  0  0  0  0  0  0
   30.0863  -19.3446   35.1363 C   0  0  0  0  0  0  0  0  0  0  0  0
   30.9712  -19.1612   33.9124 C   0  0  0  0  0  0  0  0  0  0  0  0
   37.6520  -14.2307   37.7853 C   0  0  0  0  0  0  0  0  0  0  0  0
   37.0402  -14.1284   36.5101 O   0  0  0  0  0  0  0  0  0  0  0  0
   36.8901  -18.4777   33.8611 N   0  0  0  0  0  0  0  0  0  0  0  0
   37.3631  -17.8923   33.1638 H   0  0  0  0  0  0  0  0  0  0  0  0
   37.6865  -19.6237   34.3331 C   0  0  0  0  0  0  0  0  0  0  0  0
   37.5039  -19.8660   35.7934 C   0  0  0  0  0  0  0  0  0  0  0  0
   38.5265  -19.1262   36.6380 C   0  0  0  0  0  0  0  0  0  0  0  0
   39.8459  -19.2872   36.1896 N   0  0  0  0  0  0  0  0  0  0  0  0
   40.0942  -19.9874   34.9965 C   0  0  0  0  0  0  0  0  0  0  0  0
   39.1177  -19.5104   33.9389 C   0  0  0  0  0  0  0  0  0  0  0  0
   40.9204  -18.8174   36.9528 C   0  0  0  0  0  0  0  0  0  0  0  0
   41.3430  -19.8328   37.9919 C   0  0  0  0  0  0  0  0  0  0  0  0
   42.1834  -19.1599   39.0580 C   0  0  0  0  0  0  0  0  0  0  0  0
   43.2781  -18.3591   38.4133 C   0  0  0  0  0  0  0  0  0  0  0  0
   43.4102  -18.6987   36.9267 C   0  0  0  0  0  0  0  0  0  0  0  0
   42.1326  -18.3846   36.1886 C   0  0  0  0  0  0  0  0  0  0  0  0
   34.5032  -13.7236   37.3612 O   0  0  0  0  0  0  0  0  0  0  0  0
   34.0772  -12.4943   36.8683 C   0  0  0  0  0  0  0  0  0  0  0  0
   33.1375  -11.8735   37.9089 C   0  0  0  0  0  0  0  0  0  0  0  0
   32.2600  -12.9145   38.5333 C   0  0  0  0  0  0  0  0  0  0  0  0
   30.8827  -12.5189   38.3598 N   0  0  0  0  0  0  0  0  0  0  0  0
   30.1521  -12.7449   39.5600 C   0  0  0  0  0  0  0  0  0  0  0  0
   28.8570  -11.9615   39.6105 C   0  0  0  0  0  0  0  0  0  0  0  0
   28.3244  -11.7561   38.1983 C   0  0  0  0  0  0  0  0  0  0  0  0
   29.3239  -10.8601   37.4788 C   0  0  0  0  0  0  0  0  0  0  0  0
   30.7423  -11.2200   37.7793 C   0  0  0  0  0  0  0  0  0  0  0  0
 19 20  1  0  0  0
 20  1  1  0  0  0
  1  2  2  0  0  0
  2  3  1  0  0  0
  3  4  2  0  0  0
  4 21  1  0  0  0
 21 23  1  0  0  0
 23 24  1  0  0  0
 24 25  1  0  0  0
 25 26  1  0  0  0
 26 27  1  0  0  0
 27 28  1  0  0  0
 26 29  1  0  0  0
 29 30  1  0  0  0
 30 31  1  0  0  0
 31 32  1  0  0  0
 32 33  1  0  0  0
 33 34  1  0  0  0
  4  5  1  0  0  0
  5  6  2  0  0  0
  6  7  1  0  0  0
  7  8  2  0  0  0
  8  9  1  0  0  0
  9 10  2  0  0  0
 10 35  1  0  0  0
 35 36  1  0  0  0
 36 37  1  0  0  0
 37 38  1  0  0  0
 38 39  1  0  0  0
 39 40  1  0  0  0
 40 41  1  0  0  0
 41 42  1  0  0  0
 42 43  1  0  0  0
 43 44  1  0  0  0
  6 11  1  0  0  0
 11 12  1  0  0  0
 12 13  1  0  0  0
 13 14  1  0  0  0
 14 15  1  0  0  0
 15 16  1  0  0  0
 15 17  1  0  0  0
 17 18  1  0  0  0
 10  1  1  0  0  0
 44 39  1  0  0  0
 18 11  1  0  0  0
  8  3  1  0  0  0
 28 23  1  0  0  0
 34 29  1  0  0  0
 21 22  1  0  0  0
M  END
> <minimizedAffinity>
-9.49133

> <CNNscore>
0.4708310962

> <CNNaffinity>
7.2398710251

> <CNN_VS>
3.4087564945

> <CNNaffinity_variance>
0.5584009290

$$$$
[H]c1c(OC([H])([H])C([H])([H])C([H])([H])N2C([H])([H])C([H])([H])C([H])([H])C([H])([H])C2([H])[H])c(OC([H])([H])[H])c([H])c2c(N([H])C3([H])C([H])([H])C([H])([H])N(C4([H])C([H])([H])C([H])([H])C([H])([H])C([H])([H])C4([H])[H])C([H])([H])C3([H])[H])nc(N3C([H])([H])C([H])([H])N(C([H])([H])[H])C([H])([H])C([H])([H])C3([H])[H])nc12


 44 49  0  0  0  0  0  0  0  0999 V2000
   36.5040  -14.3058   36.5380 C   0  0  0  0  0  0  0  0  0  0  0  0
   36.7467  -15.6427   36.1700 C   0  0  0  0  0  0  0  0  0  0  0  0
   35.7244  -16.5533   36.0724 C   0  0  0  0  0  0  0  0  0  0  0  0
   35.9382  -17.8629   35.7207 C   0  0  0  0  0  0  0  0  0  0  0  0
   34.8786  -18.7283   35.6438 N   0  0  0  0  0  0  0  0  0  0  0  0
   33.6217  -18.3554   35.8988 C   0  0  0  0  0  0  0  0  0  0  0  0
   33.4101  -17.0748   36.2435 N   0  0  0  0  0  0  0  0  0  0  0  0
   34.4052  -16.1755   36.3373 C   0  0  0  0  0  0  0  0  0  0  0  0
   34.1908  -14.8628   36.6953 C   0  0  0  0  0  0  0  0  0  0  0  0
   35.2051  -13.9298   36.7998 C   0  0  0  0  0  0  0  0  0  0  0  0
   32.5231  -19.2762   35.8108 N   0  0  0  0  0  0  0  0  0  0  0  0
   31.5174  -18.9330   34.8576 C   0  0  0  0  0  0  0  0  0  0  0  0
   31.6738  -19.6343   33.5357 C   0  0  0  0  0  0  0  0  0  0  0  0
   32.7109  -20.7531   33.6809 C   0  0  0  0  0  0  0  0  0  0  0  0
   32.2460  -21.6386   34.6984 N   0  0  0  0  0  0  0  0  0  0  0  0
   31.8876  -22.9515   34.2685 C   0  0  0  0  0  0  0  0  0  0  0  0
   33.0378  -21.6290   35.9077 C   0  0  0  0  0  0  0  0  0  0  0  0
   32.6128  -20.4046   36.7044 C   0  0  0  0  0  0  0  0  0  0  0  0
   38.3711  -13.4207   37.7721 C   0  0  0  0  0  0  0  0  0  0  0  0
   37.5118  -13.3644   36.6455 O   0  0  0  0  0  0  0  0  0  0  0  0
   37.2448  -18.3062   35.4359 N   0  0  0  0  0  0  0  0  0  0  0  0
   37.6869  -18.2023   34.5159 H   0  0  0  0  0  0  0  0  0  0  0  0
   38.0920  -18.9632   36.4463 C   0  0  0  0  0  0  0  0  0  0  0  0
   39.4365  -19.3139   35.9040 C   0  0  0  0  0  0  0  0  0  0  0  0
   39.4800  -20.7144   35.3184 C   0  0  0  0  0  0  0  0  0  0  0  0
   38.9274  -21.6914   36.1598 N   0  0  0  0  0  0  0  0  0  0  0  0
   38.3094  -21.3051   37.3615 C   0  0  0  0  0  0  0  0  0  0  0  0
   37.4055  -20.1191   37.0858 C   0  0  0  0  0  0  0  0  0  0  0  0
   39.0454  -23.0502   35.8479 C   0  0  0  0  0  0  0  0  0  0  0  0
   37.7969  -23.8136   36.2325 C   0  0  0  0  0  0  0  0  0  0  0  0
   38.0983  -25.2973   36.2930 C   0  0  0  0  0  0  0  0  0  0  0  0
   38.7906  -25.7281   35.0318 C   0  0  0  0  0  0  0  0  0  0  0  0
   38.7112  -24.6406   33.9577 C   0  0  0  0  0  0  0  0  0  0  0  0
   39.3828  -23.3735   34.4258 C   0  0  0  0  0  0  0  0  0  0  0  0
   34.9625  -12.6180   37.1636 O   0  0  0  0  0  0  0  0  0  0  0  0
   33.9284  -11.8211   36.6829 C   0  0  0  0  0  0  0  0  0  0  0  0
   33.0265  -11.4594   37.8691 C   0  0  0  0  0  0  0  0  0  0  0  0
   31.5865  -11.4162   37.4590 C   0  0  0  0  0  0  0  0  0  0  0  0
   30.7750  -11.7996   38.5896 N   0  0  0  0  0  0  0  0  0  0  0  0
   29.4028  -11.8468   38.2153 C   0  0  0  0  0  0  0  0  0  0  0  0
   28.5622  -12.6543   39.1823 C   0  0  0  0  0  0  0  0  0  0  0  0
   29.1638  -12.5727   40.5794 C   0  0  0  0  0  0  0  0  0  0  0  0
   30.5142  -13.2744   40.5169 C   0  0  0  0  0  0  0  0  0  0  0  0
   31.2754  -12.9514   39.2727 C   0  0  0  0  0  0  0  0  0  0  0  0
 19 20  1  0  0  0
 20  1  1  0  0  0
  1  2  2  0  0  0
  2  3  1  0  0  0
  3  4  2  0  0  0
  4 21  1  0  0  0
 21 23  1  0  0  0
 23 24  1  0  0  0
 24 25  1  0  0  0
 25 26  1  0  0  0
 26 27  1  0  0  0
 27 28  1  0  0  0
 26 29  1  0  0  0
 29 30  1  0  0  0
 30 31  1  0  0  0
 31 32  1  0  0  0
 32 33  1  0  0  0
 33 34  1  0  0  0
  4  5  1  0  0  0
  5  6  2  0  0  0
  6  7  1  0  0  0
  7  8  2  0  0  0
  8  9  1  0  0  0
  9 10  2  0  0  0
 10 35  1  0  0  0
 35 36  1  0  0  0
 36 37  1  0  0  0
 37 38  1  0  0  0
 38 39  1  0  0  0
 39 40  1  0  0  0
 40 41  1  0  0  0
 41 42  1  0  0  0
 42 43  1  0  0  0
 43 44  1  0  0  0
  6 11  1  0  0  0
 11 12  1  0  0  0
 12 13  1  0  0  0
 13 14  1  0  0  0
 14 15  1  0  0  0
 15 16  1  0  0  0
 15 17  1  0  0  0
 17 18  1  0  0  0
 10  1  1  0  0  0
 44 39  1  0  0  0
 18 11  1  0  0  0
  8  3  1  0  0  0
 28 23  1  0  0  0
 34 29  1  0  0  0
 21 22  1  0  0  0
M  END
> <minimizedAffinity>
-6.89156

> <CNNscore>
0.3866131604

> <CNNaffinity>
7.1867179871

> <CNN_VS>
2.7784798145

> <CNNaffinity_variance>
0.0374903493

$$$$
[H]c1c(OC([H])([H])C([H])([H])C([H])([H])N2C([H])([H])C([H])([H])C([H])([H])C([H])([H])C2([H])[H])c(OC([H])([H])[H])c([H])c2c(N([H])C3([H])C([H])([H])C([H])([H])N(C4([H])C([H])([H])C([H])([H])C([H])([H])C([H])([H])C4([H])[H])C([H])([H])C3([H])[H])nc(N3C([H])([H])C([H])([H])N(C([H])([H])[H])C([H])([H])C([H])([H])C3([H])[H])nc12


 44 49  0  0  0  0  0  0  0  0999 V2000
   36.4704  -15.0340   37.4385 C   0  0  0  0  0  0  0  0  0  0  0  0
   36.6828  -16.3887   37.1201 C   0  0  0  0  0  0  0  0  0  0  0  0
   35.7292  -17.1259   36.4636 C   0  0  0  0  0  0  0  0  0  0  0  0
   35.9124  -18.4491   36.1478 C   0  0  0  0  0  0  0  0  0  0  0  0
   34.9226  -19.1361   35.4951 N   0  0  0  0  0  0  0  0  0  0  0  0
   33.7639  -18.5725   35.1430 C   0  0  0  0  0  0  0  0  0  0  0  0
   33.5824  -17.2781   35.4513 N   0  0  0  0  0  0  0  0  0  0  0  0
   34.5129  -16.5477   36.0904 C   0  0  0  0  0  0  0  0  0  0  0  0
   34.3265  -15.2213   36.4117 C   0  0  0  0  0  0  0  0  0  0  0  0
   35.2727  -14.4607   37.0724 C   0  0  0  0  0  0  0  0  0  0  0  0
   32.7386  -19.3078   34.4571 N   0  0  0  0  0  0  0  0  0  0  0  0
   33.0843  -20.6468   34.1033 C   0  0  0  0  0  0  0  0  0  0  0  0
   32.5917  -21.6767   35.0833 C   0  0  0  0  0  0  0  0  0  0  0  0
   31.5959  -21.0188   36.0445 C   0  0  0  0  0  0  0  0  0  0  0  0
   30.5319  -20.4838   35.2588 N   0  0  0  0  0  0  0  0  0  0  0  0
   29.2557  -21.0984   35.4337 C   0  0  0  0  0  0  0  0  0  0  0  0
   30.4730  -19.0398   35.2351 C   0  0  0  0  0  0  0  0  0  0  0  0
   31.5189  -18.5713   34.2345 C   0  0  0  0  0  0  0  0  0  0  0  0
   38.2651  -13.4339   37.3301 C   0  0  0  0  0  0  0  0  0  0  0  0
   37.4107  -14.2642   38.0994 O   0  0  0  0  0  0  0  0  0  0  0  0
   37.1191  -19.0898   36.4919 N   0  0  0  0  0  0  0  0  0  0  0  0
   37.9646  -19.0475   35.9122 H   0  0  0  0  0  0  0  0  0  0  0  0
   37.2670  -19.8822   37.7249 C   0  0  0  0  0  0  0  0  0  0  0  0
   38.3386  -20.9121   37.6008 C   0  0  0  0  0  0  0  0  0  0  0  0
   37.8088  -22.2457   37.1036 C   0  0  0  0  0  0  0  0  0  0  0  0
   36.6662  -22.6854   37.7882 N   0  0  0  0  0  0  0  0  0  0  0  0
   36.0681  -21.8526   38.7495 C   0  0  0  0  0  0  0  0  0  0  0  0
   35.9692  -20.4487   38.1847 C   0  0  0  0  0  0  0  0  0  0  0  0
   36.1567  -23.9707   37.5729 C   0  0  0  0  0  0  0  0  0  0  0  0
   34.8278  -23.9221   36.8511 C   0  0  0  0  0  0  0  0  0  0  0  0
   34.1056  -25.2444   37.0115 C   0  0  0  0  0  0  0  0  0  0  0  0
   35.0271  -26.3747   36.6527 C   0  0  0  0  0  0  0  0  0  0  0  0
   36.2873  -25.8604   35.9525 C   0  0  0  0  0  0  0  0  0  0  0  0
   37.0568  -24.9244   36.8511 C   0  0  0  0  0  0  0  0  0  0  0  0
   35.0591  -13.1309   37.3850 O   0  0  0  0  0  0  0  0  0  0  0  0
   34.0166  -12.3429   36.9078 C   0  0  0  0  0  0  0  0  0  0  0  0
   33.1888  -11.8823   38.1135 C   0  0  0  0  0  0  0  0  0  0  0  0
   32.2432  -12.9545   38.5606 C   0  0  0  0  0  0  0  0  0  0  0  0
   30.8918  -12.4879   38.3615 N   0  0  0  0  0  0  0  0  0  0  0  0
   30.1197  -12.7037   39.5372 C   0  0  0  0  0  0  0  0  0  0  0  0
   28.8634  -11.8586   39.5730 C   0  0  0  0  0  0  0  0  0  0  0  0
   28.3789  -11.5966   38.1529 C   0  0  0  0  0  0  0  0  0  0  0  0
   29.4395  -10.7355   37.4796 C   0  0  0  0  0  0  0  0  0  0  0  0
   30.8302  -11.1713   37.8076 C   0  0  0  0  0  0  0  0  0  0  0  0
 19 20  1  0  0  0
 20  1  1  0  0  0
  1  2  2  0  0  0
  2  3  1  0  0  0
  3  4  2  0  0  0
  4 21  1  0  0  0
 21 23  1  0  0  0
 23 24  1  0  0  0
 24 25  1  0  0  0
 25 26  1  0  0  0
 26 27  1  0  0  0
 27 28  1  0  0  0
 26 29  1  0  0  0
 29 30  1  0  0  0
 30 31  1  0  0  0
 31 32  1  0  0  0
 32 33  1  0  0  0
 33 34  1  0  0  0
  4  5  1  0  0  0
  5  6  2  0  0  0
  6  7  1  0  0  0
  7  8  2  0  0  0
  8  9  1  0  0  0
  9 10  2  0  0  0
 10 35  1  0  0  0
 35 36  1  0  0  0
 36 37  1  0  0  0
 37 38  1  0  0  0
 38 39  1  0  0  0
 39 40  1  0  0  0
 40 41  1  0  0  0
 41 42  1  0  0  0
 42 43  1  0  0  0
 43 44  1  0  0  0
  6 11  1  0  0  0
 11 12  1  0  0  0
 12 13  1  0  0  0
 13 14  1  0  0  0
 14 15  1  0  0  0
 15 16  1  0  0  0
 15 17  1  0  0  0
 17 18  1  0  0  0
 10  1  1  0  0  0
 44 39  1  0  0  0
 18 11  1  0  0  0
  8  3  1  0  0  0
 28 23  1  0  0  0
 34 29  1  0  0  0
 21 22  1  0  0  0
M  END
> <minimizedAffinity>
-8.17624

> <CNNscore>
0.2984836400

> <CNNaffinity>
6.9158034325

> <CNN_VS>
2.0642542839

> <CNNaffinity_variance>
0.2515580058

$$$$
[H]c1c(OC([H])([H])C([H])([H])C([H])([H])N2C([H])([H])C([H])([H])C([H])([H])C([H])([H])C2([H])[H])c(OC([H])([H])[H])c([H])c2c(N([H])C3([H])C([H])([H])C([H])([H])N(C4([H])C([H])([H])C([H])([H])C([H])([H])C([H])([H])C4([H])[H])C([H])([H])C3([H])[H])nc(N3C([H])([H])C([H])([H])N(C([H])([H])[H])C([H])([H])C([H])([H])C3([H])[H])nc12


 44 49  0  0  0  0  0  0  0  0999 V2000
   36.0075  -15.2764   36.1820 C   0  0  0  0  0  0  0  0  0  0  0  0
   36.3279  -16.6209   35.9146 C   0  0  0  0  0  0  0  0  0  0  0  0
   35.3606  -17.5296   35.5647 C   0  0  0  0  0  0  0  0  0  0  0  0
   35.6491  -18.8462   35.3049 C   0  0  0  0  0  0  0  0  0  0  0  0
   34.6407  -19.7092   34.9643 N   0  0  0  0  0  0  0  0  0  0  0  0
   33.3643  -19.3271   34.8701 C   0  0  0  0  0  0  0  0  0  0  0  0
   33.0797  -18.0396   35.1243 N   0  0  0  0  0  0  0  0  0  0  0  0
   34.0217  -17.1421   35.4634 C   0  0  0  0  0  0  0  0  0  0  0  0
   33.7309  -15.8223   35.7292 C   0  0  0  0  0  0  0  0  0  0  0  0
   34.6889  -14.8910   36.0832 C   0  0  0  0  0  0  0  0  0  0  0  0
   32.3208  -20.2455   34.5094 N   0  0  0  0  0  0  0  0  0  0  0  0
   32.6429  -21.6264   34.6738 C   0  0  0  0  0  0  0  0  0  0  0  0
   32.1459  -22.2125   35.9674 C   0  0  0  0  0  0  0  0  0  0  0  0
   31.1705  -21.2285   36.6221 C   0  0  0  0  0  0  0  0  0  0  0  0
   30.1059  -21.0029   35.6994 N   0  0  0  0  0  0  0  0  0  0  0  0
   28.8228  -21.4866   36.0951 C   0  0  0  0  0  0  0  0  0  0  0  0
   30.0680  -19.6689   35.1440 C   0  0  0  0  0  0  0  0  0  0  0  0
   31.1097  -19.6218   34.0362 C   0  0  0  0  0  0  0  0  0  0  0  0
   37.3067  -14.2123   37.9061 C   0  0  0  0  0  0  0  0  0  0  0  0
   36.9585  -14.3367   36.5370 O   0  0  0  0  0  0  0  0  0  0  0  0
   36.9808  -19.2994   35.3847 N   0  0  0  0  0  0  0  0  0  0  0  0
   37.6495  -19.2220   34.6105 H   0  0  0  0  0  0  0  0  0  0  0  0
   37.5276  -19.9290   36.5991 C   0  0  0  0  0  0  0  0  0  0  0  0
   37.6970  -21.4018   36.4358 C   0  0  0  0  0  0  0  0  0  0  0  0
   36.4730  -22.1812   36.8836 C   0  0  0  0  0  0  0  0  0  0  0  0
   35.9922  -21.7947   38.1434 N   0  0  0  0  0  0  0  0  0  0  0  0
   36.5778  -20.7023   38.8058 C   0  0  0  0  0  0  0  0  0  0  0  0
   36.7497  -19.5666   37.8157 C   0  0  0  0  0  0  0  0  0  0  0  0
   34.9820  -22.5274   38.7763 C   0  0  0  0  0  0  0  0  0  0  0  0
   35.5392  -23.3797   39.8954 C   0  0  0  0  0  0  0  0  0  0  0  0
   34.5419  -24.4581   40.2673 C   0  0  0  0  0  0  0  0  0  0  0  0
   33.1902  -23.8448   40.4955 C   0  0  0  0  0  0  0  0  0  0  0  0
   33.2830  -22.3198   40.5885 C   0  0  0  0  0  0  0  0  0  0  0  0
   33.8283  -21.7360   39.3088 C   0  0  0  0  0  0  0  0  0  0  0  0
   34.3694  -13.5718   36.3470 O   0  0  0  0  0  0  0  0  0  0  0  0
   33.0853  -13.0700   36.5331 C   0  0  0  0  0  0  0  0  0  0  0  0
   33.1851  -11.8707   37.4834 C   0  0  0  0  0  0  0  0  0  0  0  0
   34.5215  -11.2034   37.3722 C   0  0  0  0  0  0  0  0  0  0  0  0
   34.3178   -9.8293   36.9795 N   0  0  0  0  0  0  0  0  0  0  0  0
   35.1629   -9.5019   35.8823 C   0  0  0  0  0  0  0  0  0  0  0  0
   34.7017   -8.2651   35.1399 C   0  0  0  0  0  0  0  0  0  0  0  0
   33.9853   -7.3252   36.1010 C   0  0  0  0  0  0  0  0  0  0  0  0
   32.7161   -8.0388   36.5477 C   0  0  0  0  0  0  0  0  0  0  0  0
   32.9375   -9.4896   36.8269 C   0  0  0  0  0  0  0  0  0  0  0  0
 19 20  1  0  0  0
 20  1  1  0  0  0
  1  2  2  0  0  0
  2  3  1  0  0  0
  3  4  2  0  0  0
  4 21  1  0  0  0
 21 23  1  0  0  0
 23 24  1  0  0  0
 24 25  1  0  0  0
 25 26  1  0  0  0
 26 27  1  0  0  0
 27 28  1  0  0  0
 26 29  1  0  0  0
 29 30  1  0  0  0
 30 31  1  0  0  0
 31 32  1  0  0  0
 32 33  1  0  0  0
 33 34  1  0  0  0
  4  5  1  0  0  0
  5  6  2  0  0  0
  6  7  1  0  0  0
  7  8  2  0  0  0
  8  9  1  0  0  0
  9 10  2  0  0  0
 10 35  1  0  0  0
 35 36  1  0  0  0
 36 37  1  0  0  0
 37 38  1  0  0  0
 38 39  1  0  0  0
 39 40  1  0  0  0
 40 41  1  0  0  0
 41 42  1  0  0  0
 42 43  1  0  0  0
 43 44  1  0  0  0
  6 11  1  0  0  0
 11 12  1  0  0  0
 12 13  1  0  0  0
 13 14  1  0  0  0
 14 15  1  0  0  0
 15 16  1  0  0  0
 15 17  1  0  0  0
 17 18  1  0  0  0
 10  1  1  0  0  0
 44 39  1  0  0  0
 18 11  1  0  0  0
  8  3  1  0  0  0
 28 23  1  0  0  0
 34 29  1  0  0  0
 21 22  1  0  0  0
M  END
> <minimizedAffinity>
-6.89051

> <CNNscore>
0.2799714208

> <CNNaffinity>
6.9643239975

> <CNN_VS>
1.9498116970

> <CNNaffinity_variance>
0.1104035154

$$$$
[H]c1c(OC([H])([H])C([H])([H])C([H])([H])N2C([H])([H])C([H])([H])C([H])([H])C([H])([H])C2([H])[H])c(OC([H])([H])[H])c([H])c2c(N([H])C3([H])C([H])([H])C([H])([H])N(C4([H])C([H])([H])C([H])([H])C([H])([H])C([H])([H])C4([H])[H])C([H])([H])C3([H])[H])nc(N3C([H])([H])C([H])([H])N(C([H])([H])[H])C([H])([H])C([H])([H])C3([H])[H])nc12


 44 49  0  0  0  0  0  0  0  0999 V2000
   32.4477  -18.9898   35.6326 C   0  0  0  0  0  0  0  0  0  0  0  0
   33.3681  -18.0164   36.0652 C   0  0  0  0  0  0  0  0  0  0  0  0
   34.7127  -18.1475   35.8232 C   0  0  0  0  0  0  0  0  0  0  0  0
   35.6286  -17.2139   36.2402 C   0  0  0  0  0  0  0  0  0  0  0  0
   36.9597  -17.4005   35.9737 N   0  0  0  0  0  0  0  0  0  0  0  0
   37.4218  -18.4668   35.3152 C   0  0  0  0  0  0  0  0  0  0  0  0
   36.5276  -19.3817   34.9067 N   0  0  0  0  0  0  0  0  0  0  0  0
   35.2084  -19.2588   35.1358 C   0  0  0  0  0  0  0  0  0  0  0  0
   34.2904  -20.1985   34.7219 C   0  0  0  0  0  0  0  0  0  0  0  0
   32.9326  -20.0865   34.9549 C   0  0  0  0  0  0  0  0  0  0  0  0
   38.8206  -18.6444   35.0430 N   0  0  0  0  0  0  0  0  0  0  0  0
   39.6255  -18.9606   36.1787 C   0  0  0  0  0  0  0  0  0  0  0  0
   39.8918  -20.4327   36.3392 C   0  0  0  0  0  0  0  0  0  0  0  0
   39.4632  -21.1623   35.0617 C   0  0  0  0  0  0  0  0  0  0  0  0
   40.2074  -20.6044   33.9797 N   0  0  0  0  0  0  0  0  0  0  0  0
   41.1473  -21.4762   33.3525 C   0  0  0  0  0  0  0  0  0  0  0  0
   39.4166  -19.8437   33.0388 C   0  0  0  0  0  0  0  0  0  0  0  0
   39.1891  -18.4734   33.6592 C   0  0  0  0  0  0  0  0  0  0  0  0
   30.2080  -18.9749   34.7516 C   0  0  0  0  0  0  0  0  0  0  0  0
   31.0872  -18.8872   35.8608 O   0  0  0  0  0  0  0  0  0  0  0  0
   35.1927  -16.0678   36.9340 N   0  0  0  0  0  0  0  0  0  0  0  0
   35.0240  -16.0521   37.9459 H   0  0  0  0  0  0  0  0  0  0  0  0
   34.9400  -14.7846   36.2559 C   0  0  0  0  0  0  0  0  0  0  0  0
   35.3973  -13.6230   37.0721 C   0  0  0  0  0  0  0  0  0  0  0  0
   34.3026  -13.0781   37.9726 C   0  0  0  0  0  0  0  0  0  0  0  0
   33.0835  -12.8703   37.3105 N   0  0  0  0  0  0  0  0  0  0  0  0
   32.9447  -13.2660   35.9691 C   0  0  0  0  0  0  0  0  0  0  0  0
   33.5257  -14.6575   35.8084 C   0  0  0  0  0  0  0  0  0  0  0  0
   32.0278  -12.2120   37.9506 C   0  0  0  0  0  0  0  0  0  0  0  0
   30.9461  -11.8211   36.9675 C   0  0  0  0  0  0  0  0  0  0  0  0
   30.0522  -10.7616   37.5793 C   0  0  0  0  0  0  0  0  0  0  0  0
   29.5984  -11.2027   38.9413 C   0  0  0  0  0  0  0  0  0  0  0  0
   29.9084  -12.6832   39.1753 C   0  0  0  0  0  0  0  0  0  0  0  0
   31.3926  -12.9405   39.0937 C   0  0  0  0  0  0  0  0  0  0  0  0
   32.0323  -21.0460   34.5301 O   0  0  0  0  0  0  0  0  0  0  0  0
   32.0814  -22.4002   34.8452 C   0  0  0  0  0  0  0  0  0  0  0  0
   32.0545  -22.5260   36.3732 C   0  0  0  0  0  0  0  0  0  0  0  0
   33.0818  -23.5049   36.8525 C   0  0  0  0  0  0  0  0  0  0  0  0
   34.0189  -22.8089   37.7018 N   0  0  0  0  0  0  0  0  0  0  0  0
   35.3159  -22.8228   37.1165 C   0  0  0  0  0  0  0  0  0  0  0  0
   36.2281  -21.7613   37.6952 C   0  0  0  0  0  0  0  0  0  0  0  0
   35.8415  -21.4838   39.1422 C   0  0  0  0  0  0  0  0  0  0  0  0
   34.4502  -20.8649   39.1133 C   0  0  0  0  0  0  0  0  0  0  0  0
   33.5422  -21.5316   38.1321 C   0  0  0  0  0  0  0  0  0  0  0  0
 19 20  1  0  0  0
 20  1  1  0  0  0
  1  2  2  0  0  0
  2  3  1  0  0  0
  3  4  2  0  0  0
  4 21  1  0  0  0
 21 23  1  0  0  0
 23 24  1  0  0  0
 24 25  1  0  0  0
 25 26  1  0  0  0
 26 27  1  0  0  0
 27 28  1  0  0  0
 26 29  1  0  0  0
 29 30  1  0  0  0
 30 31  1  0  0  0
 31 32  1  0  0  0
 32 33  1  0  0  0
 33 34  1  0  0  0
  4  5  1  0  0  0
  5  6  2  0  0  0
  6  7  1  0  0  0
  7  8  2  0  0  0
  8  9  1  0  0  0
  9 10  2  0  0  0
 10 35  1  0  0  0
 35 36  1  0  0  0
 36 37  1  0  0  0
 37 38  1  0  0  0
 38 39  1  0  0  0
 39 40  1  0  0  0
 40 41  1  0  0  0
 41 42  1  0  0  0
 42 43  1  0  0  0
 43 44  1  0  0  0
  6 11  1  0  0  0
 11 12  1  0  0  0
 12 13  1  0  0  0
 13 14  1  0  0  0
 14 15  1  0  0  0
 15 16  1  0  0  0
 15 17  1  0  0  0
 17 18  1  0  0  0
 10  1  1  0  0  0
 44 39  1  0  0  0
 18 11  1  0  0  0
  8  3  1  0  0  0
 28 23  1  0  0  0
 34 29  1  0  0  0
 21 22  1  0  0  0
M  END
> <minimizedAffinity>
-7.16869

> <CNNscore>
0.2506041825

> <CNNaffinity>
7.0880918503

> <CNN_VS>
1.7763054371

> <CNNaffinity_variance>
0.0618411116

$$$$
[H]c1c(OC([H])([H])C([H])([H])C([H])([H])N2C([H])([H])C([H])([H])C([H])([H])C([H])([H])C2([H])[H])c(OC([H])([H])[H])c([H])c2c(N([H])C3([H])C([H])([H])C([H])([H])N(C4([H])C([H])([H])C([H])([H])C([H])([H])C([H])([H])C4([H])[H])C([H])([H])C3([H])[H])nc(N3C([H])([H])C([H])([H])N(C([H])([H])[H])C([H])([H])C([H])([H])C3([H])[H])nc12


 44 49  0  0  0  0  0  0  0  0999 V2000
   36.1058  -19.6868   37.1636 C   0  0  0  0  0  0  0  0  0  0  0  0
   37.0581  -20.7235   37.1518 C   0  0  0  0  0  0  0  0  0  0  0  0
   38.3881  -20.4689   36.9284 C   0  0  0  0  0  0  0  0  0  0  0  0
   39.3332  -21.4643   36.9071 C   0  0  0  0  0  0  0  0  0  0  0  0
   40.6466  -21.1504   36.6746 N   0  0  0  0  0  0  0  0  0  0  0  0
   41.0636  -19.8993   36.4631 C   0  0  0  0  0  0  0  0  0  0  0  0
   40.1407  -18.9239   36.4831 N   0  0  0  0  0  0  0  0  0  0  0  0
   38.8366  -19.1642   36.7053 C   0  0  0  0  0  0  0  0  0  0  0  0
   37.8880  -18.1657   36.7214 C   0  0  0  0  0  0  0  0  0  0  0  0
   36.5441  -18.3997   36.9441 C   0  0  0  0  0  0  0  0  0  0  0  0
   42.4451  -19.5890   36.2232 N   0  0  0  0  0  0  0  0  0  0  0  0
   42.8432  -19.6079   34.8525 C   0  0  0  0  0  0  0  0  0  0  0  0
   42.8532  -18.2485   34.2078 C   0  0  0  0  0  0  0  0  0  0  0  0
   42.7128  -17.1769   35.2942 C   0  0  0  0  0  0  0  0  0  0  0  0
   43.8021  -17.3410   36.2010 N   0  0  0  0  0  0  0  0  0  0  0  0
   44.7562  -16.2800   36.2301 C   0  0  0  0  0  0  0  0  0  0  0  0
   43.4213  -17.8042   37.5162 C   0  0  0  0  0  0  0  0  0  0  0  0
   43.2120  -19.3075   37.4117 C   0  0  0  0  0  0  0  0  0  0  0  0
   34.3848  -20.8485   38.3809 C   0  0  0  0  0  0  0  0  0  0  0  0
   34.7588  -19.9104   37.3854 O   0  0  0  0  0  0  0  0  0  0  0  0
   38.9466  -22.8006   37.1301 N   0  0  0  0  0  0  0  0  0  0  0  0
   38.3822  -23.3420   36.4661 H   0  0  0  0  0  0  0  0  0  0  0  0
   39.3245  -23.5375   38.3485 C   0  0  0  0  0  0  0  0  0  0  0  0
   38.5397  -23.0917   39.5359 C   0  0  0  0  0  0  0  0  0  0  0  0
   39.2258  -21.9728   40.2997 C   0  0  0  0  0  0  0  0  0  0  0  0
   40.5795  -22.2248   40.5676 N   0  0  0  0  0  0  0  0  0  0  0  0
   41.1900  -23.3758   40.0406 C   0  0  0  0  0  0  0  0  0  0  0  0
   40.7945  -23.5138   38.5832 C   0  0  0  0  0  0  0  0  0  0  0  0
   41.3091  -21.3782   41.4095 C   0  0  0  0  0  0  0  0  0  0  0  0
   41.4410  -19.9925   40.8164 C   0  0  0  0  0  0  0  0  0  0  0  0
   42.5639  -19.2425   41.5038 C   0  0  0  0  0  0  0  0  0  0  0  0
   42.3940  -19.3251   42.9937 C   0  0  0  0  0  0  0  0  0  0  0  0
   41.0087  -19.8604   43.3639 C   0  0  0  0  0  0  0  0  0  0  0  0
   40.8052  -21.2500   42.8132 C   0  0  0  0  0  0  0  0  0  0  0  0
   35.6118  -17.3787   36.9528 O   0  0  0  0  0  0  0  0  0  0  0  0
   35.3592  -16.5021   35.9024 C   0  0  0  0  0  0  0  0  0  0  0  0
   34.0091  -16.8877   35.2860 C   0  0  0  0  0  0  0  0  0  0  0  0
   34.1724  -17.9673   34.2606 C   0  0  0  0  0  0  0  0  0  0  0  0
   33.0111  -18.8234   34.3056 N   0  0  0  0  0  0  0  0  0  0  0  0
   33.3705  -20.1567   33.9616 C   0  0  0  0  0  0  0  0  0  0  0  0
   32.3416  -21.1726   34.4121 C   0  0  0  0  0  0  0  0  0  0  0  0
   30.9587  -20.5342   34.4234 C   0  0  0  0  0  0  0  0  0  0  0  0
   30.9809  -19.4592   35.5021 C   0  0  0  0  0  0  0  0  0  0  0  0
   32.2508  -18.6725   35.5069 C   0  0  0  0  0  0  0  0  0  0  0  0
 19 20  1  0  0  0
 20  1  1  0  0  0
  1  2  2  0  0  0
  2  3  1  0  0  0
  3  4  2  0  0  0
  4 21  1  0  0  0
 21 23  1  0  0  0
 23 24  1  0  0  0
 24 25  1  0  0  0
 25 26  1  0  0  0
 26 27  1  0  0  0
 27 28  1  0  0  0
 26 29  1  0  0  0
 29 30  1  0  0  0
 30 31  1  0  0  0
 31 32  1  0  0  0
 32 33  1  0  0  0
 33 34  1  0  0  0
  4  5  1  0  0  0
  5  6  2  0  0  0
  6  7  1  0  0  0
  7  8  2  0  0  0
  8  9  1  0  0  0
  9 10  2  0  0  0
 10 35  1  0  0  0
 35 36  1  0  0  0
 36 37  1  0  0  0
 37 38  1  0  0  0
 38 39  1  0  0  0
 39 40  1  0  0  0
 40 41  1  0  0  0
 41 42  1  0  0  0
 42 43  1  0  0  0
 43 44  1  0  0  0
  6 11  1  0  0  0
 11 12  1  0  0  0
 12 13  1  0  0  0
 13 14  1  0  0  0
 14 15  1  0  0  0
 15 16  1  0  0  0
 15 17  1  0  0  0
 17 18  1  0  0  0
 10  1  1  0  0  0
 44 39  1  0  0  0
 18 11  1  0  0  0
  8  3  1  0  0  0
 28 23  1  0  0  0
 34 29  1  0  0  0
 21 22  1  0  0  0
M  END
> <minimizedAffinity>
-5.94270

> <CNNscore>
0.2327678502

> <CNNaffinity>
6.1491708755

> <CNN_VS>
1.4313292503

> <CNNaffinity_variance>
0.5437362194

$$$$
[H]c1oc([H])c(-c2nc3c([H])c(OC([H])([H])C([H])([H])C([H])([H])N4C([H])([H])C([H])([H])C([H])([H])C4([H])[H])c(OC([H])([H])[H])c([H])c3c(N([H])C3([H])C([H])([H])C([H])([H])N(C([H])([H])[H])C([H])([H])C3([H])[H])c2[H])c1[H]


 35 39  0  0  0  0  0  0  0  0999 V2000
   36.0843  -13.8778   36.7148 C   0  0  0  0  0  0  0  0  0  0  0  0
   36.5347  -15.1457   36.3488 C   0  0  0  0  0  0  0  0  0  0  0  0
   35.6655  -16.1396   35.9605 C   0  0  0  0  0  0  0  0  0  0  0  0
   36.1190  -17.3863   35.6029 C   0  0  0  0  0  0  0  0  0  0  0  0
   35.1537  -18.3261   35.2260 C   0  0  0  0  0  0  0  0  0  0  0  0
   33.8166  -18.0035   35.2189 C   0  0  0  0  0  0  0  0  0  0  0  0
   33.3912  -16.7901   35.5679 N   0  0  0  0  0  0  0  0  0  0  0  0
   34.2912  -15.8467   35.9400 C   0  0  0  0  0  0  0  0  0  0  0  0
   33.8486  -14.5887   36.3035 C   0  0  0  0  0  0  0  0  0  0  0  0
   34.7345  -13.6107   36.6879 C   0  0  0  0  0  0  0  0  0  0  0  0
   32.8389  -19.0079   34.8233 C   0  0  0  0  0  0  0  0  0  0  0  0
   31.4860  -19.0559   35.1066 C   0  0  0  0  0  0  0  0  0  0  0  0
   30.9780  -20.1971   34.5192 C   0  0  0  0  0  0  0  0  0  0  0  0
   31.9578  -20.8197   33.9079 O   0  0  0  0  0  0  0  0  0  0  0  0
   33.0816  -20.1496   34.0619 C   0  0  0  0  0  0  0  0  0  0  0  0
   38.2712  -13.3030   37.5898 C   0  0  0  0  0  0  0  0  0  0  0  0
   36.9989  -12.9013   37.1012 O   0  0  0  0  0  0  0  0  0  0  0  0
   37.4785  -17.7164   35.5813 N   0  0  0  0  0  0  0  0  0  0  0  0
   38.1844  -17.0217   35.8896 H   0  0  0  0  0  0  0  0  0  0  0  0
   37.9844  -19.0054   35.1351 C   0  0  0  0  0  0  0  0  0  0  0  0
   38.7820  -19.6287   36.2555 C   0  0  0  0  0  0  0  0  0  0  0  0
   40.1545  -18.9428   36.2638 C   0  0  0  0  0  0  0  0  0  0  0  0
   40.9235  -19.4976   35.1793 N   0  0  0  0  0  0  0  0  0  0  0  0
   41.5977  -20.6908   35.6468 C   0  0  0  0  0  0  0  0  0  0  0  0
   40.0985  -19.7317   34.0346 C   0  0  0  0  0  0  0  0  0  0  0  0
   38.9194  -18.7701   33.9747 C   0  0  0  0  0  0  0  0  0  0  0  0
   34.2570  -12.3534   37.0475 O   0  0  0  0  0  0  0  0  0  0  0  0
   33.2705  -12.1914   38.0287 C   0  0  0  0  0  0  0  0  0  0  0  0
   32.2808  -11.1541   37.5843 C   0  0  0  0  0  0  0  0  0  0  0  0
   30.9513  -11.8058   37.3592 C   0  0  0  0  0  0  0  0  0  0  0  0
   29.8758  -10.8389   37.3433 N   0  0  0  0  0  0  0  0  0  0  0  0
   28.7061  -11.4238   37.9080 C   0  0  0  0  0  0  0  0  0  0  0  0
   28.1607  -10.4619   38.9395 C   0  0  0  0  0  0  0  0  0  0  0  0
   29.0164   -9.2425   38.8604 C   0  0  0  0  0  0  0  0  0  0  0  0
   30.2367   -9.6829   38.1265 C   0  0  0  0  0  0  0  0  0  0  0  0
 16 17  1  0  0  0
 17  1  1  0  0  0
  1  2  2  0  0  0
  2  3  1  0  0  0
  3  4  2  0  0  0
  4 18  1  0  0  0
 18 20  1  0  0  0
 20 21  1  0  0  0
 21 22  1  0  0  0
 22 23  1  0  0  0
 23 24  1  0  0  0
 23 25  1  0  0  0
 25 26  1  0  0  0
  4  5  1  0  0  0
  5  6  2  0  0  0
  6  7  1  0  0  0
  7  8  2  0  0  0
  8  9  1  0  0  0
  9 10  2  0  0  0
 10 27  1  0  0  0
 27 28  1  0  0  0
 28 29  1  0  0  0
 29 30  1  0  0  0
 30 31  1  0  0  0
 31 32  1  0  0  0
 32 33  1  0  0  0
 33 34  1  0  0  0
 34 35  1  0  0  0
  6 11  1  0  0  0
 11 12  1  0  0  0
 12 13  2  0  0  0
 13 14  1  0  0  0
 14 15  1  0  0  0
 10  1  1  0  0  0
 35 31  1  0  0  0
 15 11  2  0  0  0
  8  3  1  0  0  0
 26 20  1  0  0  0
 18 19  1  0  0  0
M  END
> <minimizedAffinity>
-8.48059

> <CNNscore>
0.7915813327

> <CNNaffinity>
7.1560697556

> <CNN_VS>
5.6646113396

> <CNNaffinity_variance>
0.0696296245

$$$$
[H]c1oc([H])c(-c2nc3c([H])c(OC([H])([H])C([H])([H])C([H])([H])N4C([H])([H])C([H])([H])C([H])([H])C4([H])[H])c(OC([H])([H])[H])c([H])c3c(N([H])C3([H])C([H])([H])C([H])([H])N(C([H])([H])[H])C([H])([H])C3([H])[H])c2[H])c1[H]


 35 39  0  0  0  0  0  0  0  0999 V2000
   35.9605  -14.4847   36.4361 C   0  0  0  0  0  0  0  0  0  0  0  0
   36.5904  -15.7240   36.3294 C   0  0  0  0  0  0  0  0  0  0  0  0
   35.8868  -16.8729   36.0478 C   0  0  0  0  0  0  0  0  0  0  0  0
   36.5164  -18.0898   35.9460 C   0  0  0  0  0  0  0  0  0  0  0  0
   35.7105  -19.1967   35.6586 C   0  0  0  0  0  0  0  0  0  0  0  0
   34.3526  -19.0584   35.4891 C   0  0  0  0  0  0  0  0  0  0  0  0
   33.7554  -17.8717   35.5905 N   0  0  0  0  0  0  0  0  0  0  0  0
   34.4969  -16.7708   35.8672 C   0  0  0  0  0  0  0  0  0  0  0  0
   33.8761  -15.5404   35.9738 C   0  0  0  0  0  0  0  0  0  0  0  0
   34.5984  -14.4056   36.2555 C   0  0  0  0  0  0  0  0  0  0  0  0
   33.5437  -20.2330   35.1934 C   0  0  0  0  0  0  0  0  0  0  0  0
   33.2851  -21.3288   35.9966 C   0  0  0  0  0  0  0  0  0  0  0  0
   32.4691  -22.1840   35.2838 C   0  0  0  0  0  0  0  0  0  0  0  0
   32.2356  -21.6501   34.1083 O   0  0  0  0  0  0  0  0  0  0  0  0
   32.8538  -20.4908   34.0104 C   0  0  0  0  0  0  0  0  0  0  0  0
   37.8561  -13.4682   37.5549 C   0  0  0  0  0  0  0  0  0  0  0  0
   36.7111  -13.3472   36.7224 O   0  0  0  0  0  0  0  0  0  0  0  0
   37.9003  -18.2371   36.0904 N   0  0  0  0  0  0  0  0  0  0  0  0
   38.4538  -17.4937   36.5564 H   0  0  0  0  0  0  0  0  0  0  0  0
   38.6387  -19.3950   35.6102 C   0  0  0  0  0  0  0  0  0  0  0  0
   39.7320  -19.7189   36.5999 C   0  0  0  0  0  0  0  0  0  0  0  0
   40.8715  -18.7220   36.3511 C   0  0  0  0  0  0  0  0  0  0  0  0
   41.5769  -19.1545   35.1718 N   0  0  0  0  0  0  0  0  0  0  0  0
   42.5942  -20.1094   35.5595 C   0  0  0  0  0  0  0  0  0  0  0  0
   40.6695  -19.6683   34.1927 C   0  0  0  0  0  0  0  0  0  0  0  0
   39.2918  -19.0289   34.3004 C   0  0  0  0  0  0  0  0  0  0  0  0
   33.9436  -13.1810   36.3556 O   0  0  0  0  0  0  0  0  0  0  0  0
   32.6828  -13.0650   36.9548 C   0  0  0  0  0  0  0  0  0  0  0  0
   32.5580  -11.7225   37.6145 C   0  0  0  0  0  0  0  0  0  0  0  0
   33.8670  -11.0017   37.5167 C   0  0  0  0  0  0  0  0  0  0  0  0
   33.7017   -9.5702   37.6419 N   0  0  0  0  0  0  0  0  0  0  0  0
   34.5960   -8.9115   36.7499 C   0  0  0  0  0  0  0  0  0  0  0  0
   33.8009   -7.8871   35.9719 C   0  0  0  0  0  0  0  0  0  0  0  0
   32.4224   -7.9145   36.5416 C   0  0  0  0  0  0  0  0  0  0  0  0
   32.3516   -9.1953   37.3007 C   0  0  0  0  0  0  0  0  0  0  0  0
 16 17  1  0  0  0
 17  1  1  0  0  0
  1  2  2  0  0  0
  2  3  1  0  0  0
  3  4  2  0  0  0
  4 18  1  0  0  0
 18 20  1  0  0  0
 20 21  1  0  0  0
 21 22  1  0  0  0
 22 23  1  0  0  0
 23 24  1  0  0  0
 23 25  1  0  0  0
 25 26  1  0  0  0
  4  5  1  0  0  0
  5  6  2  0  0  0
  6  7  1  0  0  0
  7  8  2  0  0  0
  8  9  1  0  0  0
  9 10  2  0  0  0
 10 27  1  0  0  0
 27 28  1  0  0  0
 28 29  1  0  0  0
 29 30  1  0  0  0
 30 31  1  0  0  0
 31 32  1  0  0  0
 32 33  1  0  0  0
 33 34  1  0  0  0
 34 35  1  0  0  0
  6 11  1  0  0  0
 11 12  1  0  0  0
 12 13  2  0  0  0
 13 14  1  0  0  0
 14 15  1  0  0  0
 10  1  1  0  0  0
 35 31  1  0  0  0
 15 11  2  0  0  0
  8  3  1  0  0  0
 26 20  1  0  0  0
 18 19  1  0  0  0
M  END
> <minimizedAffinity>
-7.97714

> <CNNscore>
0.5701327324

> <CNNaffinity>
6.9166436195

> <CNN_VS>
3.9434049129

> <CNNaffinity_variance>
0.0239975955

$$$$
[H]c1oc([H])c(-c2nc3c([H])c(OC([H])([H])C([H])([H])C([H])([H])N4C([H])([H])C([H])([H])C([H])([H])C4([H])[H])c(OC([H])([H])[H])c([H])c3c(N([H])C3([H])C([H])([H])C([H])([H])N(C([H])([H])[H])C([H])([H])C3([H])[H])c2[H])c1[H]


 35 39  0  0  0  0  0  0  0  0999 V2000
   32.5136  -20.4993   34.4153 C   0  0  0  0  0  0  0  0  0  0  0  0
   33.8567  -20.1346   34.5009 C   0  0  0  0  0  0  0  0  0  0  0  0
   34.2424  -18.8821   34.9214 C   0  0  0  0  0  0  0  0  0  0  0  0
   35.5685  -18.5318   35.0011 C   0  0  0  0  0  0  0  0  0  0  0  0
   35.8544  -17.2340   35.4382 C   0  0  0  0  0  0  0  0  0  0  0  0
   34.8451  -16.3600   35.7687 C   0  0  0  0  0  0  0  0  0  0  0  0
   33.5632  -16.7137   35.6868 N   0  0  0  0  0  0  0  0  0  0  0  0
   33.2386  -17.9619   35.2686 C   0  0  0  0  0  0  0  0  0  0  0  0
   31.9082  -18.3271   35.1824 C   0  0  0  0  0  0  0  0  0  0  0  0
   31.5456  -19.5838   34.7600 C   0  0  0  0  0  0  0  0  0  0  0  0
   35.1794  -15.0154   36.2175 C   0  0  0  0  0  0  0  0  0  0  0  0
   34.3380  -13.9353   36.4133 C   0  0  0  0  0  0  0  0  0  0  0  0
   35.1130  -12.8762   36.8413 C   0  0  0  0  0  0  0  0  0  0  0  0
   36.3609  -13.2759   36.9069 O   0  0  0  0  0  0  0  0  0  0  0  0
   36.4477  -14.5398   36.5454 C   0  0  0  0  0  0  0  0  0  0  0  0
   32.0946  -22.8296   34.9372 C   0  0  0  0  0  0  0  0  0  0  0  0
   32.1678  -21.7777   33.9848 O   0  0  0  0  0  0  0  0  0  0  0  0
   36.6032  -19.4217   34.6928 N   0  0  0  0  0  0  0  0  0  0  0  0
   36.4252  -20.2214   34.0566 H   0  0  0  0  0  0  0  0  0  0  0  0
   37.9514  -19.3010   35.2262 C   0  0  0  0  0  0  0  0  0  0  0  0
   38.8520  -18.7446   34.1496 C   0  0  0  0  0  0  0  0  0  0  0  0
   39.1871  -19.9042   33.2023 C   0  0  0  0  0  0  0  0  0  0  0  0
   40.1818  -20.7204   33.8503 N   0  0  0  0  0  0  0  0  0  0  0  0
   41.4937  -20.1883   33.5461 C   0  0  0  0  0  0  0  0  0  0  0  0
   39.9279  -20.8177   35.2546 C   0  0  0  0  0  0  0  0  0  0  0  0
   38.4459  -20.6824   35.5772 C   0  0  0  0  0  0  0  0  0  0  0  0
   30.1969  -19.9211   34.6847 O   0  0  0  0  0  0  0  0  0  0  0  0
   29.4309  -20.1609   35.8327 C   0  0  0  0  0  0  0  0  0  0  0  0
   28.8292  -21.5342   35.7614 C   0  0  0  0  0  0  0  0  0  0  0  0
   28.7757  -22.1209   37.1382 C   0  0  0  0  0  0  0  0  0  0  0  0
   28.5499  -23.5492   37.1043 N   0  0  0  0  0  0  0  0  0  0  0  0
   28.2068  -23.9418   35.7786 C   0  0  0  0  0  0  0  0  0  0  0  0
   29.0773  -25.1210   35.4064 C   0  0  0  0  0  0  0  0  0  0  0  0
   29.8634  -25.4564   36.6292 C   0  0  0  0  0  0  0  0  0  0  0  0
   29.7477  -24.2499   37.4967 C   0  0  0  0  0  0  0  0  0  0  0  0
 16 17  1  0  0  0
 17  1  1  0  0  0
  1  2  2  0  0  0
  2  3  1  0  0  0
  3  4  2  0  0  0
  4 18  1  0  0  0
 18 20  1  0  0  0
 20 21  1  0  0  0
 21 22  1  0  0  0
 22 23  1  0  0  0
 23 24  1  0  0  0
 23 25  1  0  0  0
 25 26  1  0  0  0
  4  5  1  0  0  0
  5  6  2  0  0  0
  6  7  1  0  0  0
  7  8  2  0  0  0
  8  9  1  0  0  0
  9 10  2  0  0  0
 10 27  1  0  0  0
 27 28  1  0  0  0
 28 29  1  0  0  0
 29 30  1  0  0  0
 30 31  1  0  0  0
 31 32  1  0  0  0
 32 33  1  0  0  0
 33 34  1  0  0  0
 34 35  1  0  0  0
  6 11  1  0  0  0
 11 12  1  0  0  0
 12 13  2  0  0  0
 13 14  1  0  0  0
 14 15  1  0  0  0
 10  1  1  0  0  0
 35 31  1  0  0  0
 15 11  2  0  0  0
  8  3  1  0  0  0
 26 20  1  0  0  0
 18 19  1  0  0  0
M  END
> <minimizedAffinity>
-6.46835

> <CNNscore>
0.5173558593

> <CNNaffinity>
6.1617631912

> <CNN_VS>
3.1878242493

> <CNNaffinity_variance>
0.1889453679

$$$$
[H]c1oc([H])c(-c2nc3c([H])c(OC([H])([H])C([H])([H])C([H])([H])N4C([H])([H])C([H])([H])C([H])([H])C4([H])[H])c(OC([H])([H])[H])c([H])c3c(N([H])C3([H])C([H])([H])C([H])([H])N(C([H])([H])[H])C([H])([H])C3([H])[H])c2[H])c1[H]


 35 39  0  0  0  0  0  0  0  0999 V2000
   37.2847  -22.9773   37.0740 C   0  0  0  0  0  0  0  0  0  0  0  0
   38.5084  -23.0235   36.4072 C   0  0  0  0  0  0  0  0  0  0  0  0
   39.4405  -22.0186   36.5325 C   0  0  0  0  0  0  0  0  0  0  0  0
   40.6431  -22.0725   35.8703 C   0  0  0  0  0  0  0  0  0  0  0  0
   41.5199  -20.9996   36.0634 C   0  0  0  0  0  0  0  0  0  0  0  0
   41.1805  -19.9464   36.8803 C   0  0  0  0  0  0  0  0  0  0  0  0
   40.0105  -19.9076   37.5166 N   0  0  0  0  0  0  0  0  0  0  0  0
   39.1293  -20.9260   37.3598 C   0  0  0  0  0  0  0  0  0  0  0  0
   37.9151  -20.8839   38.0191 C   0  0  0  0  0  0  0  0  0  0  0  0
   36.9989  -21.8988   37.8797 C   0  0  0  0  0  0  0  0  0  0  0  0
   42.1169  -18.8448   37.0561 C   0  0  0  0  0  0  0  0  0  0  0  0
   42.3534  -17.7695   36.2191 C   0  0  0  0  0  0  0  0  0  0  0  0
   43.3292  -16.9906   36.8077 C   0  0  0  0  0  0  0  0  0  0  0  0
   43.6770  -17.5498   37.9425 O   0  0  0  0  0  0  0  0  0  0  0  0
   42.9828  -18.6535   38.1311 C   0  0  0  0  0  0  0  0  0  0  0  0
   36.3711  -25.0813   37.8593 C   0  0  0  0  0  0  0  0  0  0  0  0
   36.3703  -24.0162   36.9189 O   0  0  0  0  0  0  0  0  0  0  0  0
   41.0088  -23.1517   35.0582 N   0  0  0  0  0  0  0  0  0  0  0  0
   41.3998  -24.0119   35.4862 H   0  0  0  0  0  0  0  0  0  0  0  0
   40.8800  -23.1455   33.6091 C   0  0  0  0  0  0  0  0  0  0  0  0
   40.4479  -24.5186   33.1537 C   0  0  0  0  0  0  0  0  0  0  0  0
   41.6964  -25.4104   33.1724 C   0  0  0  0  0  0  0  0  0  0  0  0
   42.4800  -25.0846   32.0084 N   0  0  0  0  0  0  0  0  0  0  0  0
   42.0152  -25.8831   30.8934 C   0  0  0  0  0  0  0  0  0  0  0  0
   42.4446  -23.6792   31.7449 C   0  0  0  0  0  0  0  0  0  0  0  0
   42.2384  -22.8655   33.0153 C   0  0  0  0  0  0  0  0  0  0  0  0
   35.7850  -21.8271   38.5578 O   0  0  0  0  0  0  0  0  0  0  0  0
   34.8595  -20.8056   38.3085 C   0  0  0  0  0  0  0  0  0  0  0  0
   34.0442  -21.1471   37.0954 C   0  0  0  0  0  0  0  0  0  0  0  0
   33.6370  -19.8829   36.4034 C   0  0  0  0  0  0  0  0  0  0  0  0
   32.2053  -19.6824   36.4513 N   0  0  0  0  0  0  0  0  0  0  0  0
   31.8058  -18.8653   35.3550 C   0  0  0  0  0  0  0  0  0  0  0  0
   30.6398  -19.5452   34.6731 C   0  0  0  0  0  0  0  0  0  0  0  0
   30.3181  -20.7433   35.5018 C   0  0  0  0  0  0  0  0  0  0  0  0
   31.5237  -20.9496   36.3536 C   0  0  0  0  0  0  0  0  0  0  0  0
 16 17  1  0  0  0
 17  1  1  0  0  0
  1  2  2  0  0  0
  2  3  1  0  0  0
  3  4  2  0  0  0
  4 18  1  0  0  0
 18 20  1  0  0  0
 20 21  1  0  0  0
 21 22  1  0  0  0
 22 23  1  0  0  0
 23 24  1  0  0  0
 23 25  1  0  0  0
 25 26  1  0  0  0
  4  5  1  0  0  0
  5  6  2  0  0  0
  6  7  1  0  0  0
  7  8  2  0  0  0
  8  9  1  0  0  0
  9 10  2  0  0  0
 10 27  1  0  0  0
 27 28  1  0  0  0
 28 29  1  0  0  0
 29 30  1  0  0  0
 30 31  1  0  0  0
 31 32  1  0  0  0
 32 33  1  0  0  0
 33 34  1  0  0  0
 34 35  1  0  0  0
  6 11  1  0  0  0
 11 12  1  0  0  0
 12 13  2  0  0  0
 13 14  1  0  0  0
 14 15  1  0  0  0
 10  1  1  0  0  0
 35 31  1  0  0  0
 15 11  2  0  0  0
  8  3  1  0  0  0
 26 20  1  0  0  0
 18 19  1  0  0  0
M  END
> <minimizedAffinity>
-4.30753

> <CNNscore>
0.4070794880

> <CNNaffinity>
5.3142175674

> <CNN_VS>
2.1633088589

> <CNNaffinity_variance>
0.0505385511

$$$$
[H]c1oc([H])c(-c2nc3c([H])c(OC([H])([H])C([H])([H])C([H])([H])N4C([H])([H])C([H])([H])C([H])([H])C4([H])[H])c(OC([H])([H])[H])c([H])c3c(N([H])C3([H])C([H])([H])C([H])([H])N(C([H])([H])[H])C([H])([H])C3([H])[H])c2[H])c1[H]


 35 39  0  0  0  0  0  0  0  0999 V2000
   35.9419  -22.4641   37.7438 C   0  0  0  0  0  0  0  0  0  0  0  0
   36.9291  -21.6788   37.1498 C   0  0  0  0  0  0  0  0  0  0  0  0
   36.8224  -20.3083   37.0828 C   0  0  0  0  0  0  0  0  0  0  0  0
   37.8000  -19.5431   36.4941 C   0  0  0  0  0  0  0  0  0  0  0  0
   37.5946  -18.1594   36.4759 C   0  0  0  0  0  0  0  0  0  0  0  0
   36.4620  -17.6047   37.0249 C   0  0  0  0  0  0  0  0  0  0  0  0
   35.5221  -18.3593   37.5928 N   0  0  0  0  0  0  0  0  0  0  0  0
   35.6789  -19.7054   37.6340 C   0  0  0  0  0  0  0  0  0  0  0  0
   34.7024  -20.4873   38.2221 C   0  0  0  0  0  0  0  0  0  0  0  0
   34.8298  -21.8546   38.2782 C   0  0  0  0  0  0  0  0  0  0  0  0
   36.2798  -16.1603   36.9857 C   0  0  0  0  0  0  0  0  0  0  0  0
   35.4900  -15.4115   36.1321 C   0  0  0  0  0  0  0  0  0  0  0  0
   35.6441  -14.0844   36.4793 C   0  0  0  0  0  0  0  0  0  0  0  0
   36.4797  -14.0145   37.4883 O   0  0  0  0  0  0  0  0  0  0  0  0
   36.8829  -15.2233   37.8227 C   0  0  0  0  0  0  0  0  0  0  0  0
   35.9831  -24.5936   36.5853 C   0  0  0  0  0  0  0  0  0  0  0  0
   36.0905  -23.8480   37.7901 O   0  0  0  0  0  0  0  0  0  0  0  0
   38.9679  -20.0951   35.9567 N   0  0  0  0  0  0  0  0  0  0  0  0
   39.7779  -20.2933   36.5737 H   0  0  0  0  0  0  0  0  0  0  0  0
   39.1301  -20.4132   34.5463 C   0  0  0  0  0  0  0  0  0  0  0  0
   39.5144  -21.8676   34.4171 C   0  0  0  0  0  0  0  0  0  0  0  0
   41.0092  -21.9672   34.7486 C   0  0  0  0  0  0  0  0  0  0  0  0
   41.7407  -21.4961   33.6005 N   0  0  0  0  0  0  0  0  0  0  0  0
   41.9433  -22.6027   32.6889 C   0  0  0  0  0  0  0  0  0  0  0  0
   41.0782  -20.3833   32.9933 C   0  0  0  0  0  0  0  0  0  0  0  0
   40.2661  -19.5827   34.0023 C   0  0  0  0  0  0  0  0  0  0  0  0
   33.8289  -22.6142   38.8779 O   0  0  0  0  0  0  0  0  0  0  0  0
   32.8042  -23.2077   38.1297 C   0  0  0  0  0  0  0  0  0  0  0  0
   31.4879  -22.9993   38.8204 C   0  0  0  0  0  0  0  0  0  0  0  0
   30.5843  -24.1546   38.5179 C   0  0  0  0  0  0  0  0  0  0  0  0
   29.8408  -24.5741   39.6856 N   0  0  0  0  0  0  0  0  0  0  0  0
   30.2561  -25.8828   40.0651 C   0  0  0  0  0  0  0  0  0  0  0  0
   30.5539  -25.8610   41.5476 C   0  0  0  0  0  0  0  0  0  0  0  0
   30.1822  -24.4969   42.0235 C   0  0  0  0  0  0  0  0  0  0  0  0
   30.0934  -23.6741   40.7838 C   0  0  0  0  0  0  0  0  0  0  0  0
 16 17  1  0  0  0
 17  1  1  0  0  0
  1  2  2  0  0  0
  2  3  1  0  0  0
  3  4  2  0  0  0
  4 18  1  0  0  0
 18 20  1  0  0  0
 20 21  1  0  0  0
 21 22  1  0  0  0
 22 23  1  0  0  0
 23 24  1  0  0  0
 23 25  1  0  0  0
 25 26  1  0  0  0
  4  5  1  0  0  0
  5  6  2  0  0  0
  6  7  1  0  0  0
  7  8  2  0  0  0
  8  9  1  0  0  0
  9 10  2  0  0  0
 10 27  1  0  0  0
 27 28  1  0  0  0
 28 29  1  0  0  0
 29 30  1  0  0  0
 30 31  1  0  0  0
 31 32  1  0  0  0
 32 33  1  0  0  0
 33 34  1  0  0  0
 34 35  1  0  0  0
  6 11  1  0  0  0
 11 12  1  0  0  0
 12 13  2  0  0  0
 13 14  1  0  0  0
 14 15  1  0  0  0
 10  1  1  0  0  0
 35 31  1  0  0  0
 15 11  2  0  0  0
  8  3  1  0  0  0
 26 20  1  0  0  0
 18 19  1  0  0  0
M  END
> <minimizedAffinity>
-4.54793

> <CNNscore>
0.4061844945

> <CNNaffinity>
5.5360207558

> <CNN_VS>
2.2486457825

> <CNNaffinity_variance>
0.0361827128

$$$$
[H]c1oc([H])c(-c2nc3c([H])c(OC([H])([H])C([H])([H])C([H])([H])N4C([H])([H])C([H])([H])C([H])([H])C4([H])[H])c(OC([H])([H])[H])c([H])c3c(N([H])C3([H])C([H])([H])C([H])([H])N(C([H])([H])[H])C([H])([H])C3([H])[H])c2[H])c1[H]


 35 39  0  0  0  0  0  0  0  0999 V2000
   35.1295  -19.6279   36.4086 C   0  0  0  0  0  0  0  0  0  0  0  0
   36.4860  -19.3794   36.2029 C   0  0  0  0  0  0  0  0  0  0  0  0
   37.4471  -19.8358   37.0761 C   0  0  0  0  0  0  0  0  0  0  0  0
   38.7814  -19.5847   36.8655 C   0  0  0  0  0  0  0  0  0  0  0  0
   39.6773  -20.0908   37.8133 C   0  0  0  0  0  0  0  0  0  0  0  0
   39.2292  -20.8042   38.9006 C   0  0  0  0  0  0  0  0  0  0  0  0
   37.9320  -21.0403   39.0919 N   0  0  0  0  0  0  0  0  0  0  0  0
   37.0271  -20.5695   38.1987 C   0  0  0  0  0  0  0  0  0  0  0  0
   35.6814  -20.8138   38.3991 C   0  0  0  0  0  0  0  0  0  0  0  0
   34.7385  -20.3487   37.5138 C   0  0  0  0  0  0  0  0  0  0  0  0
   40.1902  -21.3139   39.8690 C   0  0  0  0  0  0  0  0  0  0  0  0
   41.0946  -20.6092   40.6425 C   0  0  0  0  0  0  0  0  0  0  0  0
   41.7911  -21.5242   41.4061 C   0  0  0  0  0  0  0  0  0  0  0  0
   41.3448  -22.7251   41.1230 O   0  0  0  0  0  0  0  0  0  0  0  0
   40.3933  -22.6486   40.2150 C   0  0  0  0  0  0  0  0  0  0  0  0
   34.6003  -18.8676   34.1680 C   0  0  0  0  0  0  0  0  0  0  0  0
   34.1905  -19.1475   35.4994 O   0  0  0  0  0  0  0  0  0  0  0  0
   39.2494  -18.8831   35.7491 N   0  0  0  0  0  0  0  0  0  0  0  0
   39.5878  -17.9083   35.8553 H   0  0  0  0  0  0  0  0  0  0  0  0
   39.2881  -19.4437   34.4071 C   0  0  0  0  0  0  0  0  0  0  0  0
   39.5276  -20.9310   34.5084 C   0  0  0  0  0  0  0  0  0  0  0  0
   41.0255  -21.1263   34.7773 C   0  0  0  0  0  0  0  0  0  0  0  0
   41.7198  -20.9274   33.5309 N   0  0  0  0  0  0  0  0  0  0  0  0
   41.7591  -22.1837   32.8119 C   0  0  0  0  0  0  0  0  0  0  0  0
   41.1238  -19.8681   32.7768 C   0  0  0  0  0  0  0  0  0  0  0  0
   40.4572  -18.8340   33.6740 C   0  0  0  0  0  0  0  0  0  0  0  0
   33.3909  -20.6121   37.7436 O   0  0  0  0  0  0  0  0  0  0  0  0
   32.9501  -21.8614   38.1986 C   0  0  0  0  0  0  0  0  0  0  0  0
   31.6373  -22.1998   37.5544 C   0  0  0  0  0  0  0  0  0  0  0  0
   31.4099  -21.2864   36.3895 C   0  0  0  0  0  0  0  0  0  0  0  0
   30.7719  -21.9718   35.2871 N   0  0  0  0  0  0  0  0  0  0  0  0
   31.7590  -22.6569   34.5219 C   0  0  0  0  0  0  0  0  0  0  0  0
   31.2826  -24.0779   34.3200 C   0  0  0  0  0  0  0  0  0  0  0  0
   29.9165  -24.1442   34.9159 C   0  0  0  0  0  0  0  0  0  0  0  0
   29.8236  -22.9372   35.7856 C   0  0  0  0  0  0  0  0  0  0  0  0
 16 17  1  0  0  0
 17  1  1  0  0  0
  1  2  2  0  0  0
  2  3  1  0  0  0
  3  4  2  0  0  0
  4 18  1  0  0  0
 18 20  1  0  0  0
 20 21  1  0  0  0
 21 22  1  0  0  0
 22 23  1  0  0  0
 23 24  1  0  0  0
 23 25  1  0  0  0
 25 26  1  0  0  0
  4  5  1  0  0  0
  5  6  2  0  0  0
  6  7  1  0  0  0
  7  8  2  0  0  0
  8  9  1  0  0  0
  9 10  2  0  0  0
 10 27  1  0  0  0
 27 28  1  0  0  0
 28 29  1  0  0  0
 29 30  1  0  0  0
 30 31  1  0  0  0
 31 32  1  0  0  0
 32 33  1  0  0  0
 33 34  1  0  0  0
 34 35  1  0  0  0
  6 11  1  0  0  0
 11 12  1  0  0  0
 12 13  2  0  0  0
 13 14  1  0  0  0
 14 15  1  0  0  0
 10  1  1  0  0  0
 35 31  1  0  0  0
 15 11  2  0  0  0
  8  3  1  0  0  0
 26 20  1  0  0  0
 18 19  1  0  0  0
M  END
> <minimizedAffinity>
-4.97903

> <CNNscore>
0.3163883090

> <CNNaffinity>
5.4383430481

> <CNN_VS>
1.7206281424

> <CNNaffinity_variance>
0.1817452610

$$$$
[H]c1oc([H])c(-c2nc3c([H])c(OC([H])([H])C([H])([H])C([H])([H])N4C([H])([H])C([H])([H])C([H])([H])C4([H])[H])c(OC([H])([H])[H])c([H])c3c(N([H])C3([H])C([H])([H])C([H])([H])N(C([H])([H])[H])C([H])([H])C3([H])[H])c2[H])c1[H]


 35 39  0  0  0  0  0  0  0  0999 V2000
   38.3456  -20.5658   35.7686 C   0  0  0  0  0  0  0  0  0  0  0  0
   37.1342  -20.1574   35.2121 C   0  0  0  0  0  0  0  0  0  0  0  0
   36.6036  -18.9127   35.4644 C   0  0  0  0  0  0  0  0  0  0  0  0
   35.4084  -18.5199   34.9123 C   0  0  0  0  0  0  0  0  0  0  0  0
   34.9553  -17.2358   35.2333 C   0  0  0  0  0  0  0  0  0  0  0  0
   35.6825  -16.4160   36.0645 C   0  0  0  0  0  0  0  0  0  0  0  0
   36.8404  -16.8102   36.5926 N   0  0  0  0  0  0  0  0  0  0  0  0
   37.3189  -18.0466   36.3088 C   0  0  0  0  0  0  0  0  0  0  0  0
   38.5196  -18.4552   36.8586 C   0  0  0  0  0  0  0  0  0  0  0  0
   39.0312  -19.7029   36.5928 C   0  0  0  0  0  0  0  0  0  0  0  0
   35.1791  -15.0860   36.3793 C   0  0  0  0  0  0  0  0  0  0  0  0
   35.8845  -13.9701   36.7916 C   0  0  0  0  0  0  0  0  0  0  0  0
   34.9766  -12.9453   36.9673 C   0  0  0  0  0  0  0  0  0  0  0  0
   33.7793  -13.3989   36.6809 O   0  0  0  0  0  0  0  0  0  0  0  0
   33.8514  -14.6658   36.3267 C   0  0  0  0  0  0  0  0  0  0  0  0
   38.3583  -22.9475   36.2225 C   0  0  0  0  0  0  0  0  0  0  0  0
   38.8462  -21.8343   35.4865 O   0  0  0  0  0  0  0  0  0  0  0  0
   34.6743  -19.3360   34.0447 N   0  0  0  0  0  0  0  0  0  0  0  0
   34.7832  -19.2299   33.0186 H   0  0  0  0  0  0  0  0  0  0  0  0
   33.7348  -20.3498   34.4988 C   0  0  0  0  0  0  0  0  0  0  0  0
   32.4268  -20.1623   33.7683 C   0  0  0  0  0  0  0  0  0  0  0  0
   31.6989  -18.9935   34.4453 C   0  0  0  0  0  0  0  0  0  0  0  0
   31.1363  -19.4871   35.6762 N   0  0  0  0  0  0  0  0  0  0  0  0
   29.8294  -20.0470   35.4014 C   0  0  0  0  0  0  0  0  0  0  0  0
   32.0225  -20.4154   36.3076 C   0  0  0  0  0  0  0  0  0  0  0  0
   33.4802  -20.1327   35.9699 C   0  0  0  0  0  0  0  0  0  0  0  0
   40.2434  -20.0843   37.1616 O   0  0  0  0  0  0  0  0  0  0  0  0
   41.1641  -19.1422   37.6378 C   0  0  0  0  0  0  0  0  0  0  0  0
   42.3796  -19.1332   36.7572 C   0  0  0  0  0  0  0  0  0  0  0  0
   42.1818  -18.1397   35.6541 C   0  0  0  0  0  0  0  0  0  0  0  0
   42.2806  -18.7588   34.3506 N   0  0  0  0  0  0  0  0  0  0  0  0
   42.5219  -20.1540   34.5073 C   0  0  0  0  0  0  0  0  0  0  0  0
   41.5347  -20.8942   33.6330 C   0  0  0  0  0  0  0  0  0  0  0  0
   40.7843  -19.8479   32.8797 C   0  0  0  0  0  0  0  0  0  0  0  0
   41.0474  -18.5834   33.6238 C   0  0  0  0  0  0  0  0  0  0  0  0
 16 17  1  0  0  0
 17  1  1  0  0  0
  1  2  2  0  0  0
  2  3  1  0  0  0
  3  4  2  0  0  0
  4 18  1  0  0  0
 18 20  1  0  0  0
 20 21  1  0  0  0
 21 22  1  0  0  0
 22 23  1  0  0  0
 23 24  1  0  0  0
 23 25  1  0  0  0
 25 26  1  0  0  0
  4  5  1  0  0  0
  5  6  2  0  0  0
  6  7  1  0  0  0
  7  8  2  0  0  0
  8  9  1  0  0  0
  9 10  2  0  0  0
 10 27  1  0  0  0
 27 28  1  0  0  0
 28 29  1  0  0  0
 29 30  1  0  0  0
 30 31  1  0  0  0
 31 32  1  0  0  0
 32 33  1  0  0  0
 33 34  1  0  0  0
 34 35  1  0  0  0
  6 11  1  0  0  0
 11 12  1  0  0  0
 12 13  2  0  0  0
 13 14  1  0  0  0
 14 15  1  0  0  0
 10  1  1  0  0  0
 35 31  1  0  0  0
 15 11  2  0  0  0
  8  3  1  0  0  0
 26 20  1  0  0  0
 18 19  1  0  0  0
M  END
> <minimizedAffinity>
-6.48266

> <CNNscore>
0.3113754690

> <CNNaffinity>
6.2859902382

> <CNN_VS>
1.9573031664

> <CNNaffinity_variance>
0.2258619964

$$$$
[H]c1oc([H])c(-c2nc3c([H])c(OC([H])([H])C([H])([H])C([H])([H])N4C([H])([H])C([H])([H])C([H])([H])C4([H])[H])c(OC([H])([H])[H])c([H])c3c(N([H])C3([H])C([H])([H])C([H])([H])N(C([H])([H])[H])C([H])([H])C3([H])[H])c2[H])c1[H]


 35 39  0  0  0  0  0  0  0  0999 V2000
   37.2763  -19.9656   36.1300 C   0  0  0  0  0  0  0  0  0  0  0  0
   36.0095  -19.4935   35.7889 C   0  0  0  0  0  0  0  0  0  0  0  0
   35.6518  -18.1776   35.9754 C   0  0  0  0  0  0  0  0  0  0  0  0
   34.4004  -17.7222   35.6374 C   0  0  0  0  0  0  0  0  0  0  0  0
   34.1365  -16.3679   35.8688 C   0  0  0  0  0  0  0  0  0  0  0  0
   35.0943  -15.5428   36.4106 C   0  0  0  0  0  0  0  0  0  0  0  0
   36.3041  -15.9983   36.7334 N   0  0  0  0  0  0  0  0  0  0  0  0
   36.6049  -17.3040   36.5262 C   0  0  0  0  0  0  0  0  0  0  0  0
   37.8598  -17.7758   36.8630 C   0  0  0  0  0  0  0  0  0  0  0  0
   38.1957  -19.0941   36.6678 C   0  0  0  0  0  0  0  0  0  0  0  0
   34.7840  -14.1385   36.6404 C   0  0  0  0  0  0  0  0  0  0  0  0
   35.4867  -13.0197   36.2313 C   0  0  0  0  0  0  0  0  0  0  0  0
   34.8043  -11.9098   36.6870 C   0  0  0  0  0  0  0  0  0  0  0  0
   33.7414  -12.3162   37.3400 O   0  0  0  0  0  0  0  0  0  0  0  0
   33.6886  -13.6326   37.3379 C   0  0  0  0  0  0  0  0  0  0  0  0
   37.3253  -22.2450   36.9546 C   0  0  0  0  0  0  0  0  0  0  0  0
   37.5963  -21.3052   35.9240 O   0  0  0  0  0  0  0  0  0  0  0  0
   33.4281  -18.5471   35.0613 N   0  0  0  0  0  0  0  0  0  0  0  0
   33.5245  -18.8481   34.0733 H   0  0  0  0  0  0  0  0  0  0  0  0
   32.2516  -19.0198   35.7746 C   0  0  0  0  0  0  0  0  0  0  0  0
   32.5779  -20.3411   36.4284 C   0  0  0  0  0  0  0  0  0  0  0  0
   32.5084  -21.4127   35.3324 C   0  0  0  0  0  0  0  0  0  0  0  0
   31.1167  -21.6870   35.0813 N   0  0  0  0  0  0  0  0  0  0  0  0
   30.6670  -22.7069   36.0057 C   0  0  0  0  0  0  0  0  0  0  0  0
   30.3391  -20.4883   35.1469 C   0  0  0  0  0  0  0  0  0  0  0  0
   31.1532  -19.2586   34.7682 C   0  0  0  0  0  0  0  0  0  0  0  0
   39.4682  -19.5382   37.0169 O   0  0  0  0  0  0  0  0  0  0  0  0
   40.6126  -18.7705   36.7656 C   0  0  0  0  0  0  0  0  0  0  0  0
   41.6447  -19.0408   37.8214 C   0  0  0  0  0  0  0  0  0  0  0  0
   42.9808  -18.5686   37.3369 C   0  0  0  0  0  0  0  0  0  0  0  0
   42.8849  -17.9177   36.0487 N   0  0  0  0  0  0  0  0  0  0  0  0
   43.2576  -16.5493   36.1819 C   0  0  0  0  0  0  0  0  0  0  0  0
   44.2666  -16.2381   35.0993 C   0  0  0  0  0  0  0  0  0  0  0  0
   44.3725  -17.4712   34.2665 C   0  0  0  0  0  0  0  0  0  0  0  0
   43.7767  -18.5484   35.1070 C   0  0  0  0  0  0  0  0  0  0  0  0
 16 17  1  0  0  0
 17  1  1  0  0  0
  1  2  2  0  0  0
  2  3  1  0  0  0
  3  4  2  0  0  0
  4 18  1  0  0  0
 18 20  1  0  0  0
 20 21  1  0  0  0
 21 22  1  0  0  0
 22 23  1  0  0  0
 23 24  1  0  0  0
 23 25  1  0  0  0
 25 26  1  0  0  0
  4  5  1  0  0  0
  5  6  2  0  0  0
  6  7  1  0  0  0
  7  8  2  0  0  0
  8  9  1  0  0  0
  9 10  2  0  0  0
 10 27  1  0  0  0
 27 28  1  0  0  0
 28 29  1  0  0  0
 29 30  1  0  0  0
 30 31  1  0  0  0
 31 32  1  0  0  0
 32 33  1  0  0  0
 33 34  1  0  0  0
 34 35  1  0  0  0
  6 11  1  0  0  0
 11 12  1  0  0  0
 12 13  2  0  0  0
 13 14  1  0  0  0
 14 15  1  0  0  0
 10  1  1  0  0  0
 35 31  1  0  0  0
 15 11  2  0  0  0
  8  3  1  0  0  0
 26 20  1  0  0  0
 18 19  1  0  0  0
M  END
> <minimizedAffinity>
-6.64762

> <CNNscore>
0.3096482456

> <CNNaffinity>
6.0788197517

> <CNN_VS>
1.8822958469

> <CNNaffinity_variance>
0.2456080914

$$$$
[H]c1oc([H])c(-c2nc3c([H])c(OC([H])([H])C([H])([H])C([H])([H])N4C([H])([H])C([H])([H])C([H])([H])C4([H])[H])c(OC([H])([H])[H])c([H])c3c(N([H])C3([H])C([H])([H])C([H])([H])N(C([H])([H])[H])C([H])([H])C3([H])[H])c2[H])c1[H]


 35 39  0  0  0  0  0  0  0  0999 V2000
   33.3511  -19.5185   36.3584 C   0  0  0  0  0  0  0  0  0  0  0  0
   34.2568  -18.4937   36.6297 C   0  0  0  0  0  0  0  0  0  0  0  0
   35.6144  -18.7170   36.6667 C   0  0  0  0  0  0  0  0  0  0  0  0
   36.4989  -17.7008   36.9362 C   0  0  0  0  0  0  0  0  0  0  0  0
   37.8578  -18.0331   36.9524 C   0  0  0  0  0  0  0  0  0  0  0  0
   38.2744  -19.3211   36.7088 C   0  0  0  0  0  0  0  0  0  0  0  0
   37.4052  -20.2966   36.4485 N   0  0  0  0  0  0  0  0  0  0  0  0
   36.0779  -20.0209   36.4218 C   0  0  0  0  0  0  0  0  0  0  0  0
   35.1769  -21.0342   36.1532 C   0  0  0  0  0  0  0  0  0  0  0  0
   33.8250  -20.7885   36.1210 C   0  0  0  0  0  0  0  0  0  0  0  0
   39.6971  -19.6316   36.7364 C   0  0  0  0  0  0  0  0  0  0  0  0
   40.3132  -20.8684   36.6749 C   0  0  0  0  0  0  0  0  0  0  0  0
   41.6760  -20.6580   36.7365 C   0  0  0  0  0  0  0  0  0  0  0  0
   41.8922  -19.3674   36.8306 O   0  0  0  0  0  0  0  0  0  0  0  0
   40.7455  -18.7187   36.8342 C   0  0  0  0  0  0  0  0  0  0  0  0
   31.3784  -18.8899   35.0969 C   0  0  0  0  0  0  0  0  0  0  0  0
   31.9853  -19.2481   36.3306 O   0  0  0  0  0  0  0  0  0  0  0  0
   36.0872  -16.3823   37.1591 N   0  0  0  0  0  0  0  0  0  0  0  0
   36.0267  -16.0161   38.1277 H   0  0  0  0  0  0  0  0  0  0  0  0
   35.7206  -15.4646   36.0914 C   0  0  0  0  0  0  0  0  0  0  0  0
   36.5632  -14.2175   36.2117 C   0  0  0  0  0  0  0  0  0  0  0  0
   35.9499  -13.3687   37.3331 C   0  0  0  0  0  0  0  0  0  0  0  0
   34.7748  -12.7284   36.7997 N   0  0  0  0  0  0  0  0  0  0  0  0
   35.1654  -11.4841   36.1703 C   0  0  0  0  0  0  0  0  0  0  0  0
   34.0702  -13.6062   35.9171 C   0  0  0  0  0  0  0  0  0  0  0  0
   34.2771  -15.0698   36.2827 C   0  0  0  0  0  0  0  0  0  0  0  0
   32.9433  -21.8305   35.8469 O   0  0  0  0  0  0  0  0  0  0  0  0
   32.4604  -22.6736   36.8559 C   0  0  0  0  0  0  0  0  0  0  0  0
   32.0344  -23.9835   36.2596 C   0  0  0  0  0  0  0  0  0  0  0  0
   30.5412  -24.0127   36.1498 C   0  0  0  0  0  0  0  0  0  0  0  0
   30.1066  -24.1288   34.7751 N   0  0  0  0  0  0  0  0  0  0  0  0
   31.2317  -23.9974   33.9113 C   0  0  0  0  0  0  0  0  0  0  0  0
   31.1957  -25.1460   32.9283 C   0  0  0  0  0  0  0  0  0  0  0  0
   29.9287  -25.8845   33.2020 C   0  0  0  0  0  0  0  0  0  0  0  0
   29.5038  -25.4201   34.5531 C   0  0  0  0  0  0  0  0  0  0  0  0
 16 17  1  0  0  0
 17  1  1  0  0  0
  1  2  2  0  0  0
  2  3  1  0  0  0
  3  4  2  0  0  0
  4 18  1  0  0  0
 18 20  1  0  0  0
 20 21  1  0  0  0
 21 22  1  0  0  0
 22 23  1  0  0  0
 23 24  1  0  0  0
 23 25  1  0  0  0
 25 26  1  0  0  0
  4  5  1  0  0  0
  5  6  2  0  0  0
  6  7  1  0  0  0
  7  8  2  0  0  0
  8  9  1  0  0  0
  9 10  2  0  0  0
 10 27  1  0  0  0
 27 28  1  0  0  0
 28 29  1  0  0  0
 29 30  1  0  0  0
 30 31  1  0  0  0
 31 32  1  0  0  0
 32 33  1  0  0  0
 33 34  1  0  0  0
 34 35  1  0  0  0
  6 11  1  0  0  0
 11 12  1  0  0  0
 12 13  2  0  0  0
 13 14  1  0  0  0
 14 15  1  0  0  0
 10  1  1  0  0  0
 35 31  1  0  0  0
 15 11  2  0  0  0
  8  3  1  0  0  0
 26 20  1  0  0  0
 18 19  1  0  0  0
M  END
> <minimizedAffinity>
-5.31527

> <CNNscore>
0.2799478173

> <CNNaffinity>
5.9424366951

> <CNN_VS>
1.6635721922

> <CNNaffinity_variance>
0.0276693609

$$$$
[H]c1c(-c2nc3c([H])c(OC([H])([H])C([H])([H])C([H])([H])N4C([H])([H])C([H])([H])C([H])([H])C4([H])[H])c(OC([H])([H])[H])c([H])c3c(N([H])C3([H])C([H])([H])C([H])([H])N(C([H])(C([H])([H])[H])C([H])([H])[H])C([H])([H])C3([H])[H])c2[H])oc(C([H])([H])C([H])([H])[H])c1[H]


 39 43  0  0  0  0  0  0  0  0999 V2000
   33.9269  -18.0423   35.4865 C   0  0  0  0  0  0  0  0  0  0  0  0
   35.2782  -18.3425   35.5675 C   0  0  0  0  0  0  0  0  0  0  0  0
   36.2536  -17.4299   35.9106 C   0  0  0  0  0  0  0  0  0  0  0  0
   35.8204  -16.1487   36.1835 C   0  0  0  0  0  0  0  0  0  0  0  0
   36.6472  -15.1183   36.5371 C   0  0  0  0  0  0  0  0  0  0  0  0
   36.2286  -13.8637   36.8033 C   0  0  0  0  0  0  0  0  0  0  0  0
   34.8690  -13.5134   36.7342 C   0  0  0  0  0  0  0  0  0  0  0  0
   34.0194  -14.5662   36.3722 C   0  0  0  0  0  0  0  0  0  0  0  0
   34.4549  -15.8346   36.1044 C   0  0  0  0  0  0  0  0  0  0  0  0
   33.5724  -16.7889   35.7614 N   0  0  0  0  0  0  0  0  0  0  0  0
   31.0463  -20.0995   35.1149 C   0  0  0  0  0  0  0  0  0  0  0  0
   31.8636  -20.7824   34.2254 C   0  0  0  0  0  0  0  0  0  0  0  0
   33.0566  -20.0985   34.2472 C   0  0  0  0  0  0  0  0  0  0  0  0
   32.9369  -19.0608   35.1138 C   0  0  0  0  0  0  0  0  0  0  0  0
   31.7109  -19.1058   35.6082 O   0  0  0  0  0  0  0  0  0  0  0  0
   29.7052  -22.0043   35.7258 C   0  0  0  0  0  0  0  0  0  0  0  0
   29.6484  -20.5279   35.3823 C   0  0  0  0  0  0  0  0  0  0  0  0
   37.6196  -17.7527   35.9989 N   0  0  0  0  0  0  0  0  0  0  0  0
   38.2559  -16.9911   36.4216 H   0  0  0  0  0  0  0  0  0  0  0  0
   38.2980  -18.9467   35.6200 C   0  0  0  0  0  0  0  0  0  0  0  0
   39.4196  -19.3828   36.5076 C   0  0  0  0  0  0  0  0  0  0  0  0
   39.5670  -20.9003   36.2536 C   0  0  0  0  0  0  0  0  0  0  0  0
   39.8553  -21.0840   34.8717 N   0  0  0  0  0  0  0  0  0  0  0  0
   38.9199  -20.5637   33.9385 C   0  0  0  0  0  0  0  0  0  0  0  0
   38.7420  -19.0482   34.1923 C   0  0  0  0  0  0  0  0  0  0  0  0
   40.4739  -22.3162   34.5142 C   0  0  0  0  0  0  0  0  0  0  0  0
   41.4029  -22.2402   33.3538 C   0  0  0  0  0  0  0  0  0  0  0  0
   39.4223  -23.3647   34.2278 C   0  0  0  0  0  0  0  0  0  0  0  0
   37.1294  -12.8792   37.1541 O   0  0  0  0  0  0  0  0  0  0  0  0
   38.4086  -13.2479   37.6046 C   0  0  0  0  0  0  0  0  0  0  0  0
   34.4730  -12.3098   36.9903 O   0  0  0  0  0  0  0  0  0  0  0  0
   34.0515  -11.1222   37.2394 C   0  0  0  0  0  0  0  0  0  0  0  0
   32.6941  -11.0077   37.9494 C   0  0  0  0  0  0  0  0  0  0  0  0
   31.7213  -12.0190   37.4498 C   0  0  0  0  0  0  0  0  0  0  0  0
   30.3908  -11.5045   37.3744 N   0  0  0  0  0  0  0  0  0  0  0  0
   29.4847  -12.1802   38.2842 C   0  0  0  0  0  0  0  0  0  0  0  0
   28.4045  -11.1493   38.5668 C   0  0  0  0  0  0  0  0  0  0  0  0
   29.1855   -9.8686   38.5335 C   0  0  0  0  0  0  0  0  0  0  0  0
   30.2977  -10.1041   37.5828 C   0  0  0  0  0  0  0  0  0  0  0  0
 16 17  1  0  0  0
 17 11  1  0  0  0
 11 12  2  0  0  0
 12 13  1  0  0  0
 13 14  2  0  0  0
 14 15  1  0  0  0
 14  1  1  0  0  0
  1  2  2  0  0  0
  2  3  1  0  0  0
  3 18  1  0  0  0
 18 20  1  0  0  0
 20 21  1  0  0  0
 21 22  1  0  0  0
 22 23  1  0  0  0
 23 24  1  0  0  0
 24 25  1  0  0  0
 23 26  1  0  0  0
 26 27  1  0  0  0
 26 28  1  0  0  0
  3  4  2  0  0  0
  4  5  1  0  0  0
  5  6  2  0  0  0
  6 29  1  0  0  0
 29 30  1  0  0  0
  6  7  1  0  0  0
  7 31  1  0  0  0
 31 32  1  0  0  0
 32 33  1  0  0  0
 33 34  1  0  0  0
 34 35  1  0  0  0
 35 36  1  0  0  0
 36 37  1  0  0  0
 37 38  1  0  0  0
 38 39  1  0  0  0
  7  8  2  0  0  0
  8  9  1  0  0  0
  9 10  2  0  0  0
 15 11  1  0  0  0
 10  1  1  0  0  0
 25 20  1  0  0  0
  9  4  1  0  0  0
 39 35  1  0  0  0
 18 19  1  0  0  0
M  END
> <minimizedAffinity>
-8.58808

> <CNNscore>
0.8247679472

> <CNNaffinity>
7.5449395180

> <CNN_VS>
6.2228240967

> <CNNaffinity_variance>
0.0481457487

$$$$
[H]c1c(-c2nc3c([H])c(OC([H])([H])C([H])([H])C([H])([H])N4C([H])([H])C([H])([H])C([H])([H])C4([H])[H])c(OC([H])([H])[H])c([H])c3c(N([H])C3([H])C([H])([H])C([H])([H])N(C([H])(C([H])([H])[H])C([H])([H])[H])C([H])([H])C3([H])[H])c2[H])oc(C([H])([H])C([H])([H])[H])c1[H]


 39 43  0  0  0  0  0  0  0  0999 V2000
   33.8804  -18.2807   35.3240 C   0  0  0  0  0  0  0  0  0  0  0  0
   35.2361  -18.5718   35.3131 C   0  0  0  0  0  0  0  0  0  0  0  0
   36.2251  -17.6593   35.6153 C   0  0  0  0  0  0  0  0  0  0  0  0
   35.8013  -16.3881   35.9443 C   0  0  0  0  0  0  0  0  0  0  0  0
   36.6419  -15.3592   36.2690 C   0  0  0  0  0  0  0  0  0  0  0  0
   36.2326  -14.1144   36.5898 C   0  0  0  0  0  0  0  0  0  0  0  0
   34.8690  -13.7737   36.6141 C   0  0  0  0  0  0  0  0  0  0  0  0
   34.0053  -14.8248   36.2820 C   0  0  0  0  0  0  0  0  0  0  0  0
   34.4315  -16.0833   35.9583 C   0  0  0  0  0  0  0  0  0  0  0  0
   33.5355  -17.0368   35.6495 N   0  0  0  0  0  0  0  0  0  0  0  0
   32.0866  -21.2645   34.5842 C   0  0  0  0  0  0  0  0  0  0  0  0
   31.0177  -20.3867   34.4723 C   0  0  0  0  0  0  0  0  0  0  0  0
   31.5512  -19.1469   34.7360 C   0  0  0  0  0  0  0  0  0  0  0  0
   32.8757  -19.2985   34.9908 C   0  0  0  0  0  0  0  0  0  0  0  0
   33.1469  -20.5889   34.8870 O   0  0  0  0  0  0  0  0  0  0  0  0
   30.7219  -23.1552   35.1866 C   0  0  0  0  0  0  0  0  0  0  0  0
   31.9261  -22.7265   34.3700 C   0  0  0  0  0  0  0  0  0  0  0  0
   37.5960  -17.9729   35.6103 N   0  0  0  0  0  0  0  0  0  0  0  0
   38.1849  -17.4930   34.8445 H   0  0  0  0  0  0  0  0  0  0  0  0
   38.3360  -18.8290   36.4757 C   0  0  0  0  0  0  0  0  0  0  0  0
   39.7777  -19.0317   36.1348 C   0  0  0  0  0  0  0  0  0  0  0  0
   40.4487  -19.4571   37.4605 C   0  0  0  0  0  0  0  0  0  0  0  0
   39.8151  -20.6519   37.9049 N   0  0  0  0  0  0  0  0  0  0  0  0
   38.4107  -20.6043   38.1102 C   0  0  0  0  0  0  0  0  0  0  0  0
   37.7228  -20.1577   36.7988 C   0  0  0  0  0  0  0  0  0  0  0  0
   40.5528  -21.4546   38.8215 C   0  0  0  0  0  0  0  0  0  0  0  0
   40.6807  -20.8882   40.1920 C   0  0  0  0  0  0  0  0  0  0  0  0
   41.9369  -21.7301   38.2778 C   0  0  0  0  0  0  0  0  0  0  0  0
   37.1470  -13.1308   36.9059 O   0  0  0  0  0  0  0  0  0  0  0  0
   38.2655  -13.4599   37.6910 C   0  0  0  0  0  0  0  0  0  0  0  0
   34.4819  -12.5794   36.9223 O   0  0  0  0  0  0  0  0  0  0  0  0
   34.0823  -11.3912   37.2028 C   0  0  0  0  0  0  0  0  0  0  0  0
   32.7953  -11.2754   38.0334 C   0  0  0  0  0  0  0  0  0  0  0  0
   31.7609  -12.2510   37.5900 C   0  0  0  0  0  0  0  0  0  0  0  0
   30.4877  -11.6381   37.3810 N   0  0  0  0  0  0  0  0  0  0  0  0
   29.4610  -12.1877   38.2465 C   0  0  0  0  0  0  0  0  0  0  0  0
   28.4518  -11.0604   38.3884 C   0  0  0  0  0  0  0  0  0  0  0  0
   29.3370   -9.8494   38.3550 C   0  0  0  0  0  0  0  0  0  0  0  0
   30.4957  -10.2252   37.5110 C   0  0  0  0  0  0  0  0  0  0  0  0
 16 17  1  0  0  0
 17 11  1  0  0  0
 11 12  2  0  0  0
 12 13  1  0  0  0
 13 14  2  0  0  0
 14 15  1  0  0  0
 14  1  1  0  0  0
  1  2  2  0  0  0
  2  3  1  0  0  0
  3 18  1  0  0  0
 18 20  1  0  0  0
 20 21  1  0  0  0
 21 22  1  0  0  0
 22 23  1  0  0  0
 23 24  1  0  0  0
 24 25  1  0  0  0
 23 26  1  0  0  0
 26 27  1  0  0  0
 26 28  1  0  0  0
  3  4  2  0  0  0
  4  5  1  0  0  0
  5  6  2  0  0  0
  6 29  1  0  0  0
 29 30  1  0  0  0
  6  7  1  0  0  0
  7 31  1  0  0  0
 31 32  1  0  0  0
 32 33  1  0  0  0
 33 34  1  0  0  0
 34 35  1  0  0  0
 35 36  1  0  0  0
 36 37  1  0  0  0
 37 38  1  0  0  0
 38 39  1  0  0  0
  7  8  2  0  0  0
  8  9  1  0  0  0
  9 10  2  0  0  0
 15 11  1  0  0  0
 10  1  1  0  0  0
 25 20  1  0  0  0
  9  4  1  0  0  0
 39 35  1  0  0  0
 18 19  1  0  0  0
M  END
> <minimizedAffinity>
-8.04828

> <CNNscore>
0.6902737617

> <CNNaffinity>
7.2288384438

> <CNN_VS>
4.9898777008

> <CNNaffinity_variance>
0.1941931248

$$$$
[H]c1c(-c2nc3c([H])c(OC([H])([H])C([H])([H])C([H])([H])N4C([H])([H])C([H])([H])C([H])([H])C4([H])[H])c(OC([H])([H])[H])c([H])c3c(N([H])C3([H])C([H])([H])C([H])([H])N(C([H])(C([H])([H])[H])C([H])([H])[H])C([H])([H])C3([H])[H])c2[H])oc(C([H])([H])C([H])([H])[H])c1[H]


 39 43  0  0  0  0  0  0  0  0999 V2000
   34.2445  -19.0926   35.3899 C   0  0  0  0  0  0  0  0  0  0  0  0
   35.6300  -19.1353   35.4213 C   0  0  0  0  0  0  0  0  0  0  0  0
   36.4319  -18.0398   35.6638 C   0  0  0  0  0  0  0  0  0  0  0  0
   35.7796  -16.8441   35.8845 C   0  0  0  0  0  0  0  0  0  0  0  0
   36.4142  -15.6594   36.1380 C   0  0  0  0  0  0  0  0  0  0  0  0
   35.7809  -14.4877   36.3529 C   0  0  0  0  0  0  0  0  0  0  0  0
   34.3784  -14.3967   36.3309 C   0  0  0  0  0  0  0  0  0  0  0  0
   33.7252  -15.6080   36.0715 C   0  0  0  0  0  0  0  0  0  0  0  0
   34.3775  -16.7903   35.8549 C   0  0  0  0  0  0  0  0  0  0  0  0
   33.6746  -17.9098   35.6105 N   0  0  0  0  0  0  0  0  0  0  0  0
   32.5756  -22.2344   35.4976 C   0  0  0  0  0  0  0  0  0  0  0  0
   32.1385  -21.8484   34.2384 C   0  0  0  0  0  0  0  0  0  0  0  0
   32.7086  -20.6142   34.0309 C   0  0  0  0  0  0  0  0  0  0  0  0
   33.4467  -20.2966   35.1247 C   0  0  0  0  0  0  0  0  0  0  0  0
   33.3336  -21.3024   35.9762 O   0  0  0  0  0  0  0  0  0  0  0  0
   31.6321  -24.3876   34.9743 C   0  0  0  0  0  0  0  0  0  0  0  0
   32.1756  -23.5318   36.1025 C   0  0  0  0  0  0  0  0  0  0  0  0
   37.8363  -18.1014   35.7030 N   0  0  0  0  0  0  0  0  0  0  0  0
   38.3419  -17.1712   35.9099 H   0  0  0  0  0  0  0  0  0  0  0  0
   38.7029  -19.2169   35.5182 C   0  0  0  0  0  0  0  0  0  0  0  0
   39.7576  -19.4175   36.5591 C   0  0  0  0  0  0  0  0  0  0  0  0
   40.1281  -20.9155   36.4731 C   0  0  0  0  0  0  0  0  0  0  0  0
   40.6001  -21.1720   35.1548 N   0  0  0  0  0  0  0  0  0  0  0  0
   39.7232  -20.8663   34.0804 C   0  0  0  0  0  0  0  0  0  0  0  0
   39.3230  -19.3745   34.1631 C   0  0  0  0  0  0  0  0  0  0  0  0
   41.4101  -22.3317   34.9885 C   0  0  0  0  0  0  0  0  0  0  0  0
   42.3620  -22.5988   36.1011 C   0  0  0  0  0  0  0  0  0  0  0  0
   42.1868  -22.2449   33.6937 C   0  0  0  0  0  0  0  0  0  0  0  0
   36.4965  -13.3348   36.6026 O   0  0  0  0  0  0  0  0  0  0  0  0
   37.7145  -13.4198   37.2987 C   0  0  0  0  0  0  0  0  0  0  0  0
   33.7763  -13.2715   36.5376 O   0  0  0  0  0  0  0  0  0  0  0  0
   33.1671  -12.1643   36.7682 C   0  0  0  0  0  0  0  0  0  0  0  0
   33.9845  -11.0576   37.4512 C   0  0  0  0  0  0  0  0  0  0  0  0
   33.1788   -9.8219   37.6576 C   0  0  0  0  0  0  0  0  0  0  0  0
   33.7928   -8.6682   37.0809 N   0  0  0  0  0  0  0  0  0  0  0  0
   34.9257   -9.0073   36.2400 C   0  0  0  0  0  0  0  0  0  0  0  0
   35.0073   -7.8606   35.2461 C   0  0  0  0  0  0  0  0  0  0  0  0
   33.5601   -7.5100   35.0618 C   0  0  0  0  0  0  0  0  0  0  0  0
   32.9020   -7.8426   36.3473 C   0  0  0  0  0  0  0  0  0  0  0  0
 16 17  1  0  0  0
 17 11  1  0  0  0
 11 12  2  0  0  0
 12 13  1  0  0  0
 13 14  2  0  0  0
 14 15  1  0  0  0
 14  1  1  0  0  0
  1  2  2  0  0  0
  2  3  1  0  0  0
  3 18  1  0  0  0
 18 20  1  0  0  0
 20 21  1  0  0  0
 21 22  1  0  0  0
 22 23  1  0  0  0
 23 24  1  0  0  0
 24 25  1  0  0  0
 23 26  1  0  0  0
 26 27  1  0  0  0
 26 28  1  0  0  0
  3  4  2  0  0  0
  4  5  1  0  0  0
  5  6  2  0  0  0
  6 29  1  0  0  0
 29 30  1  0  0  0
  6  7  1  0  0  0
  7 31  1  0  0  0
 31 32  1  0  0  0
 32 33  1  0  0  0
 33 34  1  0  0  0
 34 35  1  0  0  0
 35 36  1  0  0  0
 36 37  1  0  0  0
 37 38  1  0  0  0
 38 39  1  0  0  0
  7  8  2  0  0  0
  8  9  1  0  0  0
  9 10  2  0  0  0
 15 11  1  0  0  0
 10  1  1  0  0  0
 25 20  1  0  0  0
  9  4  1  0  0  0
 39 35  1  0  0  0
 18 19  1  0  0  0
M  END
> <minimizedAffinity>
-7.45269

> <CNNscore>
0.5111031532

> <CNNaffinity>
7.0457105637

> <CNN_VS>
3.6010849476

> <CNNaffinity_variance>
0.0440277755

$$$$
[H]c1c(-c2nc3c([H])c(OC([H])([H])C([H])([H])C([H])([H])N4C([H])([H])C([H])([H])C([H])([H])C4([H])[H])c(OC([H])([H])[H])c([H])c3c(N([H])C3([H])C([H])([H])C([H])([H])N(C([H])(C([H])([H])[H])C([H])([H])[H])C([H])([H])C3([H])[H])c2[H])oc(C([H])([H])C([H])([H])[H])c1[H]


 39 43  0  0  0  0  0  0  0  0999 V2000
   34.2561  -14.9296   36.4263 C   0  0  0  0  0  0  0  0  0  0  0  0
   33.4792  -15.7616   35.6345 C   0  0  0  0  0  0  0  0  0  0  0  0
   33.8893  -16.9956   35.1750 C   0  0  0  0  0  0  0  0  0  0  0  0
   35.1572  -17.3935   35.5464 C   0  0  0  0  0  0  0  0  0  0  0  0
   35.7261  -18.5823   35.1808 C   0  0  0  0  0  0  0  0  0  0  0  0
   36.9657  -18.9750   35.5400 C   0  0  0  0  0  0  0  0  0  0  0  0
   37.7888  -18.1651   36.3415 C   0  0  0  0  0  0  0  0  0  0  0  0
   37.2095  -16.9468   36.7177 C   0  0  0  0  0  0  0  0  0  0  0  0
   35.9515  -16.5587   36.3475 C   0  0  0  0  0  0  0  0  0  0  0  0
   35.4698  -15.3701   36.7505 N   0  0  0  0  0  0  0  0  0  0  0  0
   32.3186  -12.0867   37.3382 C   0  0  0  0  0  0  0  0  0  0  0  0
   33.5617  -11.5605   37.6599 C   0  0  0  0  0  0  0  0  0  0  0  0
   34.4560  -12.5610   37.3594 C   0  0  0  0  0  0  0  0  0  0  0  0
   33.7608  -13.6247   36.8827 C   0  0  0  0  0  0  0  0  0  0  0  0
   32.4815  -13.2888   36.8901 O   0  0  0  0  0  0  0  0  0  0  0  0
   31.4352   -9.8462   37.3416 C   0  0  0  0  0  0  0  0  0  0  0  0
   31.0664  -11.3067   37.5195 C   0  0  0  0  0  0  0  0  0  0  0  0
   33.0851  -17.8329   34.3813 N   0  0  0  0  0  0  0  0  0  0  0  0
   32.9230  -17.5045   33.3667 H   0  0  0  0  0  0  0  0  0  0  0  0
   32.4522  -19.0656   34.7121 C   0  0  0  0  0  0  0  0  0  0  0  0
   32.6831  -20.2038   33.7702 C   0  0  0  0  0  0  0  0  0  0  0  0
   32.4288  -21.4774   34.6081 C   0  0  0  0  0  0  0  0  0  0  0  0
   31.0895  -21.4226   35.0873 N   0  0  0  0  0  0  0  0  0  0  0  0
   30.7251  -20.2940   35.8684 C   0  0  0  0  0  0  0  0  0  0  0  0
   30.9943  -19.0070   35.0536 C   0  0  0  0  0  0  0  0  0  0  0  0
   30.5057  -22.6632   35.4731 C   0  0  0  0  0  0  0  0  0  0  0  0
   30.8408  -23.8165   34.5940 C   0  0  0  0  0  0  0  0  0  0  0  0
   29.0010  -22.5309   35.5498 C   0  0  0  0  0  0  0  0  0  0  0  0
   37.4667  -20.1929   35.1283 O   0  0  0  0  0  0  0  0  0  0  0  0
   38.2069  -20.2630   33.9356 C   0  0  0  0  0  0  0  0  0  0  0  0
   38.9760  -18.5461   36.6831 O   0  0  0  0  0  0  0  0  0  0  0  0
   40.1669  -18.9081   37.0005 C   0  0  0  0  0  0  0  0  0  0  0  0
   41.1480  -19.1410   35.8417 C   0  0  0  0  0  0  0  0  0  0  0  0
   42.5079  -19.5002   36.3318 C   0  0  0  0  0  0  0  0  0  0  0  0
   43.4544  -18.4492   36.1321 N   0  0  0  0  0  0  0  0  0  0  0  0
   43.1132  -17.6056   35.0020 C   0  0  0  0  0  0  0  0  0  0  0  0
   43.7520  -16.2666   35.3313 C   0  0  0  0  0  0  0  0  0  0  0  0
   43.6171  -16.2208   36.8250 C   0  0  0  0  0  0  0  0  0  0  0  0
   43.6638  -17.6325   37.2734 C   0  0  0  0  0  0  0  0  0  0  0  0
 16 17  1  0  0  0
 17 11  1  0  0  0
 11 12  2  0  0  0
 12 13  1  0  0  0
 13 14  2  0  0  0
 14 15  1  0  0  0
 14  1  1  0  0  0
  1  2  2  0  0  0
  2  3  1  0  0  0
  3 18  1  0  0  0
 18 20  1  0  0  0
 20 21  1  0  0  0
 21 22  1  0  0  0
 22 23  1  0  0  0
 23 24  1  0  0  0
 24 25  1  0  0  0
 23 26  1  0  0  0
 26 27  1  0  0  0
 26 28  1  0  0  0
  3  4  2  0  0  0
  4  5  1  0  0  0
  5  6  2  0  0  0
  6 29  1  0  0  0
 29 30  1  0  0  0
  6  7  1  0  0  0
  7 31  1  0  0  0
 31 32  1  0  0  0
 32 33  1  0  0  0
 33 34  1  0  0  0
 34 35  1  0  0  0
 35 36  1  0  0  0
 36 37  1  0  0  0
 37 38  1  0  0  0
 38 39  1  0  0  0
  7  8  2  0  0  0
  8  9  1  0  0  0
  9 10  2  0  0  0
 15 11  1  0  0  0
 10  1  1  0  0  0
 25 20  1  0  0  0
  9  4  1  0  0  0
 39 35  1  0  0  0
 18 19  1  0  0  0
M  END
> <minimizedAffinity>
-7.88764

> <CNNscore>
0.3433750272

> <CNNaffinity>
6.5646080971

> <CNN_VS>
2.2541224957

> <CNNaffinity_variance>
0.2607100308

$$$$
[H]c1c(-c2nc3c([H])c(OC([H])([H])C([H])([H])C([H])([H])N4C([H])([H])C([H])([H])C([H])([H])C4([H])[H])c(OC([H])([H])[H])c([H])c3c(N([H])C3([H])C([H])([H])C([H])([H])N(C([H])(C([H])([H])[H])C([H])([H])[H])C([H])([H])C3([H])[H])c2[H])oc(C([H])([H])C([H])([H])[H])c1[H]


 39 43  0  0  0  0  0  0  0  0999 V2000
   36.5406  -17.1418   37.0389 C   0  0  0  0  0  0  0  0  0  0  0  0
   37.5077  -17.6760   36.2009 C   0  0  0  0  0  0  0  0  0  0  0  0
   37.7765  -19.0243   36.0916 C   0  0  0  0  0  0  0  0  0  0  0  0
   37.0160  -19.8631   36.8802 C   0  0  0  0  0  0  0  0  0  0  0  0
   37.1477  -21.2243   36.9016 C   0  0  0  0  0  0  0  0  0  0  0  0
   36.4078  -22.0484   37.6718 C   0  0  0  0  0  0  0  0  0  0  0  0
   35.4164  -21.5520   38.5360 C   0  0  0  0  0  0  0  0  0  0  0  0
   35.2789  -20.1585   38.5168 C   0  0  0  0  0  0  0  0  0  0  0  0
   36.0348  -19.3324   37.7316 C   0  0  0  0  0  0  0  0  0  0  0  0
   35.8405  -18.0029   37.7741 N   0  0  0  0  0  0  0  0  0  0  0  0
   35.1839  -13.8514   37.0564 C   0  0  0  0  0  0  0  0  0  0  0  0
   36.5005  -13.4980   37.3157 C   0  0  0  0  0  0  0  0  0  0  0  0
   37.1860  -14.6899   37.3436 C   0  0  0  0  0  0  0  0  0  0  0  0
   36.3036  -15.6943   37.1101 C   0  0  0  0  0  0  0  0  0  0  0  0
   35.1152  -15.1379   36.9443 O   0  0  0  0  0  0  0  0  0  0  0  0
   33.1505  -13.0870   38.0962 C   0  0  0  0  0  0  0  0  0  0  0  0
   34.1063  -12.8337   36.9460 C   0  0  0  0  0  0  0  0  0  0  0  0
   38.7537  -19.5517   35.2287 N   0  0  0  0  0  0  0  0  0  0  0  0
   38.3895  -20.1978   34.4454 H   0  0  0  0  0  0  0  0  0  0  0  0
   40.1646  -19.3549   35.2245 C   0  0  0  0  0  0  0  0  0  0  0  0
   40.7779  -18.9204   36.5172 C   0  0  0  0  0  0  0  0  0  0  0  0
   42.2604  -19.3473   36.4228 C   0  0  0  0  0  0  0  0  0  0  0  0
   42.8309  -18.6918   35.2952 N   0  0  0  0  0  0  0  0  0  0  0  0
   42.2193  -18.9193   34.0339 C   0  0  0  0  0  0  0  0  0  0  0  0
   40.7275  -18.5187   34.1156 C   0  0  0  0  0  0  0  0  0  0  0  0
   44.2498  -18.5686   35.2876 C   0  0  0  0  0  0  0  0  0  0  0  0
   44.9896  -19.7915   35.7028 C   0  0  0  0  0  0  0  0  0  0  0  0
   44.6788  -17.4173   36.1696 C   0  0  0  0  0  0  0  0  0  0  0  0
   36.6034  -23.4137   37.6343 O   0  0  0  0  0  0  0  0  0  0  0  0
   37.8811  -23.9162   37.3336 C   0  0  0  0  0  0  0  0  0  0  0  0
   34.7099  -22.3460   39.2720 O   0  0  0  0  0  0  0  0  0  0  0  0
   34.0198  -23.1224   40.0276 C   0  0  0  0  0  0  0  0  0  0  0  0
   33.8882  -24.5847   39.5758 C   0  0  0  0  0  0  0  0  0  0  0  0
   34.4774  -25.5258   40.5688 C   0  0  0  0  0  0  0  0  0  0  0  0
   35.6654  -25.0095   41.1708 N   0  0  0  0  0  0  0  0  0  0  0  0
   35.7065  -25.2439   42.6021 C   0  0  0  0  0  0  0  0  0  0  0  0
   37.1897  -25.2718   42.9319 C   0  0  0  0  0  0  0  0  0  0  0  0
   37.7682  -25.8912   41.6937 C   0  0  0  0  0  0  0  0  0  0  0  0
   36.8668  -25.4896   40.5880 C   0  0  0  0  0  0  0  0  0  0  0  0
 16 17  1  0  0  0
 17 11  1  0  0  0
 11 12  2  0  0  0
 12 13  1  0  0  0
 13 14  2  0  0  0
 14 15  1  0  0  0
 14  1  1  0  0  0
  1  2  2  0  0  0
  2  3  1  0  0  0
  3 18  1  0  0  0
 18 20  1  0  0  0
 20 21  1  0  0  0
 21 22  1  0  0  0
 22 23  1  0  0  0
 23 24  1  0  0  0
 24 25  1  0  0  0
 23 26  1  0  0  0
 26 27  1  0  0  0
 26 28  1  0  0  0
  3  4  2  0  0  0
  4  5  1  0  0  0
  5  6  2  0  0  0
  6 29  1  0  0  0
 29 30  1  0  0  0
  6  7  1  0  0  0
  7 31  1  0  0  0
 31 32  1  0  0  0
 32 33  1  0  0  0
 33 34  1  0  0  0
 34 35  1  0  0  0
 35 36  1  0  0  0
 36 37  1  0  0  0
 37 38  1  0  0  0
 38 39  1  0  0  0
  7  8  2  0  0  0
  8  9  1  0  0  0
  9 10  2  0  0  0
 15 11  1  0  0  0
 10  1  1  0  0  0
 25 20  1  0  0  0
  9  4  1  0  0  0
 39 35  1  0  0  0
 18 19  1  0  0  0
M  END
> <minimizedAffinity>
-5.35567

> <CNNscore>
0.2987427711

> <CNNaffinity>
6.0741548538

> <CNN_VS>
1.8146098852

> <CNNaffinity_variance>
0.0899094343

$$$$
[H]c1c(-c2nc3c([H])c(OC([H])([H])C([H])([H])C([H])([H])N4C([H])([H])C([H])([H])C([H])([H])C4([H])[H])c(OC([H])([H])[H])c([H])c3c(N([H])C3([H])C([H])([H])C([H])([H])N(C([H])(C([H])([H])[H])C([H])([H])[H])C([H])([H])C3([H])[H])c2[H])oc(C([H])([H])C([H])([H])[H])c1[H]


 39 43  0  0  0  0  0  0  0  0999 V2000
   36.5090  -17.1330   37.1442 C   0  0  0  0  0  0  0  0  0  0  0  0
   37.4729  -17.7193   36.3381 C   0  0  0  0  0  0  0  0  0  0  0  0
   37.7336  -19.0732   36.3048 C   0  0  0  0  0  0  0  0  0  0  0  0
   36.9680  -19.8618   37.1389 C   0  0  0  0  0  0  0  0  0  0  0  0
   37.0915  -21.2203   37.2369 C   0  0  0  0  0  0  0  0  0  0  0  0
   36.3465  -21.9954   38.0519 C   0  0  0  0  0  0  0  0  0  0  0  0
   35.3580  -21.4453   38.8863 C   0  0  0  0  0  0  0  0  0  0  0  0
   35.2289  -20.0542   38.7887 C   0  0  0  0  0  0  0  0  0  0  0  0
   35.9899  -19.2782   37.9587 C   0  0  0  0  0  0  0  0  0  0  0  0
   35.8036  -17.9472   37.9264 N   0  0  0  0  0  0  0  0  0  0  0  0
   35.1713  -13.8389   36.9810 C   0  0  0  0  0  0  0  0  0  0  0  0
   36.4915  -13.4792   37.2124 C   0  0  0  0  0  0  0  0  0  0  0  0
   37.1702  -14.6717   37.3047 C   0  0  0  0  0  0  0  0  0  0  0  0
   36.2807  -15.6824   37.1339 C   0  0  0  0  0  0  0  0  0  0  0  0
   35.0946  -15.1292   36.9429 O   0  0  0  0  0  0  0  0  0  0  0  0
   33.1257  -13.0316   37.9628 C   0  0  0  0  0  0  0  0  0  0  0  0
   34.0990  -12.8226   36.8183 C   0  0  0  0  0  0  0  0  0  0  0  0
   38.7078  -19.6542   35.4734 N   0  0  0  0  0  0  0  0  0  0  0  0
   38.3446  -20.3720   34.7548 H   0  0  0  0  0  0  0  0  0  0  0  0
   40.1141  -19.4316   35.4278 C   0  0  0  0  0  0  0  0  0  0  0  0
   40.7254  -18.7985   36.6367 C   0  0  0  0  0  0  0  0  0  0  0  0
   42.2160  -19.2044   36.5933 C   0  0  0  0  0  0  0  0  0  0  0  0
   42.7660  -18.7114   35.3764 N   0  0  0  0  0  0  0  0  0  0  0  0
   42.1522  -19.1352   34.1679 C   0  0  0  0  0  0  0  0  0  0  0  0
   40.6527  -18.7572   34.2027 C   0  0  0  0  0  0  0  0  0  0  0  0
   44.1819  -18.5619   35.3381 C   0  0  0  0  0  0  0  0  0  0  0  0
   44.9529  -19.7669   35.7490 C   0  0  0  0  0  0  0  0  0  0  0  0
   44.6073  -17.3946   36.2005 C   0  0  0  0  0  0  0  0  0  0  0  0
   36.5339  -23.3618   38.0912 O   0  0  0  0  0  0  0  0  0  0  0  0
   37.8340  -23.8804   37.9644 C   0  0  0  0  0  0  0  0  0  0  0  0
   34.6466  -22.1923   39.6655 O   0  0  0  0  0  0  0  0  0  0  0  0
   33.9558  -22.9252   40.4628 C   0  0  0  0  0  0  0  0  0  0  0  0
   32.4865  -23.1615   40.0824 C   0  0  0  0  0  0  0  0  0  0  0  0
   32.3047  -24.4439   39.3467 C   0  0  0  0  0  0  0  0  0  0  0  0
   33.3367  -24.6719   38.3857 N   0  0  0  0  0  0  0  0  0  0  0  0
   33.7869  -26.0512   38.3751 C   0  0  0  0  0  0  0  0  0  0  0  0
   34.3137  -26.2595   36.9649 C   0  0  0  0  0  0  0  0  0  0  0  0
   33.3903  -25.3923   36.1607 C   0  0  0  0  0  0  0  0  0  0  0  0
   32.9940  -24.2862   37.0640 C   0  0  0  0  0  0  0  0  0  0  0  0
 16 17  1  0  0  0
 17 11  1  0  0  0
 11 12  2  0  0  0
 12 13  1  0  0  0
 13 14  2  0  0  0
 14 15  1  0  0  0
 14  1  1  0  0  0
  1  2  2  0  0  0
  2  3  1  0  0  0
  3 18  1  0  0  0
 18 20  1  0  0  0
 20 21  1  0  0  0
 21 22  1  0  0  0
 22 23  1  0  0  0
 23 24  1  0  0  0
 24 25  1  0  0  0
 23 26  1  0  0  0
 26 27  1  0  0  0
 26 28  1  0  0  0
  3  4  2  0  0  0
  4  5  1  0  0  0
  5  6  2  0  0  0
  6 29  1  0  0  0
 29 30  1  0  0  0
  6  7  1  0  0  0
  7 31  1  0  0  0
 31 32  1  0  0  0
 32 33  1  0  0  0
 33 34  1  0  0  0
 34 35  1  0  0  0
 35 36  1  0  0  0
 36 37  1  0  0  0
 37 38  1  0  0  0
 38 39  1  0  0  0
  7  8  2  0  0  0
  8  9  1  0  0  0
  9 10  2  0  0  0
 15 11  1  0  0  0
 10  1  1  0  0  0
 25 20  1  0  0  0
  9  4  1  0  0  0
 39 35  1  0  0  0
 18 19  1  0  0  0
M  END
> <minimizedAffinity>
-5.43448

> <CNNscore>
0.2827606201

> <CNNaffinity>
6.1707320213

> <CNN_VS>
1.7448400259

> <CNNaffinity_variance>
0.0950040966

$$$$
[H]c1c(-c2nc3c([H])c(OC([H])([H])C([H])([H])C([H])([H])N4C([H])([H])C([H])([H])C([H])([H])C4([H])[H])c(OC([H])([H])[H])c([H])c3c(N([H])C3([H])C([H])([H])C([H])([H])N(C([H])(C([H])([H])[H])C([H])([H])[H])C([H])([H])C3([H])[H])c2[H])oc(C([H])([H])C([H])([H])[H])c1[H]


 39 43  0  0  0  0  0  0  0  0999 V2000
   36.5358  -17.1368   37.0424 C   0  0  0  0  0  0  0  0  0  0  0  0
   37.4907  -17.6615   36.1847 C   0  0  0  0  0  0  0  0  0  0  0  0
   37.7742  -19.0066   36.0736 C   0  0  0  0  0  0  0  0  0  0  0  0
   37.0423  -19.8524   36.8815 C   0  0  0  0  0  0  0  0  0  0  0  0
   37.1919  -21.2117   36.9042 C   0  0  0  0  0  0  0  0  0  0  0  0
   36.4798  -22.0425   37.6933 C   0  0  0  0  0  0  0  0  0  0  0  0
   35.5017  -21.5559   38.5778 C   0  0  0  0  0  0  0  0  0  0  0  0
   35.3459  -20.1643   38.5574 C   0  0  0  0  0  0  0  0  0  0  0  0
   36.0736  -19.3313   37.7530 C   0  0  0  0  0  0  0  0  0  0  0  0
   35.8632  -18.0043   37.7957 N   0  0  0  0  0  0  0  0  0  0  0  0
   35.1409  -13.8624   37.0612 C   0  0  0  0  0  0  0  0  0  0  0  0
   36.4531  -13.4939   37.3216 C   0  0  0  0  0  0  0  0  0  0  0  0
   37.1524  -14.6778   37.3492 C   0  0  0  0  0  0  0  0  0  0  0  0
   36.2818  -15.6922   37.1145 C   0  0  0  0  0  0  0  0  0  0  0  0
   35.0872  -15.1495   36.9481 O   0  0  0  0  0  0  0  0  0  0  0  0
   33.1312  -13.0826   38.1351 C   0  0  0  0  0  0  0  0  0  0  0  0
   34.0516  -12.8572   36.9507 C   0  0  0  0  0  0  0  0  0  0  0  0
   38.7387  -19.5244   35.1907 N   0  0  0  0  0  0  0  0  0  0  0  0
   38.3595  -20.1350   34.3863 H   0  0  0  0  0  0  0  0  0  0  0  0
   40.1535  -19.3577   35.1902 C   0  0  0  0  0  0  0  0  0  0  0  0
   40.7766  -18.9712   36.4934 C   0  0  0  0  0  0  0  0  0  0  0  0
   42.2496  -19.4268   36.3859 C   0  0  0  0  0  0  0  0  0  0  0  0
   42.8333  -18.7537   35.2757 N   0  0  0  0  0  0  0  0  0  0  0  0
   42.2163  -18.9343   34.0094 C   0  0  0  0  0  0  0  0  0  0  0  0
   40.7335  -18.5043   34.1035 C   0  0  0  0  0  0  0  0  0  0  0  0
   44.2545  -18.6606   35.2697 C   0  0  0  0  0  0  0  0  0  0  0  0
   44.9667  -19.8782   35.7446 C   0  0  0  0  0  0  0  0  0  0  0  0
   44.7040  -17.4790   36.1000 C   0  0  0  0  0  0  0  0  0  0  0  0
   36.6921  -23.4053   37.6556 O   0  0  0  0  0  0  0  0  0  0  0  0
   38.0022  -23.8923   37.5075 C   0  0  0  0  0  0  0  0  0  0  0  0
   34.8220  -22.3563   39.3318 O   0  0  0  0  0  0  0  0  0  0  0  0
   34.1359  -23.1649   40.0568 C   0  0  0  0  0  0  0  0  0  0  0  0
   34.6608  -23.4326   41.4754 C   0  0  0  0  0  0  0  0  0  0  0  0
   34.0380  -22.5226   42.4768 C   0  0  0  0  0  0  0  0  0  0  0  0
   34.2224  -21.1444   42.1495 N   0  0  0  0  0  0  0  0  0  0  0  0
   33.1579  -20.3060   42.6686 C   0  0  0  0  0  0  0  0  0  0  0  0
   33.8062  -18.9415   42.8333 C   0  0  0  0  0  0  0  0  0  0  0  0
   35.2084  -19.3118   43.2181 C   0  0  0  0  0  0  0  0  0  0  0  0
   35.4725  -20.6130   42.5597 C   0  0  0  0  0  0  0  0  0  0  0  0
 16 17  1  0  0  0
 17 11  1  0  0  0
 11 12  2  0  0  0
 12 13  1  0  0  0
 13 14  2  0  0  0
 14 15  1  0  0  0
 14  1  1  0  0  0
  1  2  2  0  0  0
  2  3  1  0  0  0
  3 18  1  0  0  0
 18 20  1  0  0  0
 20 21  1  0  0  0
 21 22  1  0  0  0
 22 23  1  0  0  0
 23 24  1  0  0  0
 24 25  1  0  0  0
 23 26  1  0  0  0
 26 27  1  0  0  0
 26 28  1  0  0  0
  3  4  2  0  0  0
  4  5  1  0  0  0
  5  6  2  0  0  0
  6 29  1  0  0  0
 29 30  1  0  0  0
  6  7  1  0  0  0
  7 31  1  0  0  0
 31 32  1  0  0  0
 32 33  1  0  0  0
 33 34  1  0  0  0
 34 35  1  0  0  0
 35 36  1  0  0  0
 36 37  1  0  0  0
 37 38  1  0  0  0
 38 39  1  0  0  0
  7  8  2  0  0  0
  8  9  1  0  0  0
  9 10  2  0  0  0
 15 11  1  0  0  0
 10  1  1  0  0  0
 25 20  1  0  0  0
  9  4  1  0  0  0
 39 35  1  0  0  0
 18 19  1  0  0  0
M  END
> <minimizedAffinity>
-6.06985

> <CNNscore>
0.2656505108

> <CNNaffinity>
6.0980439186

> <CNN_VS>
1.6199485064

> <CNNaffinity_variance>
0.3810053766

$$$$
[H]c1c(-c2nc3c([H])c(OC([H])([H])C([H])([H])C([H])([H])N4C([H])([H])C([H])([H])C([H])([H])C4([H])[H])c(OC([H])([H])[H])c([H])c3c(N([H])C3([H])C([H])([H])C([H])([H])N(C([H])(C([H])([H])[H])C([H])([H])[H])C([H])([H])C3([H])[H])c2[H])oc(C([H])([H])C([H])([H])[H])c1[H]


 39 43  0  0  0  0  0  0  0  0999 V2000
   34.6554  -15.3742   36.3887 C   0  0  0  0  0  0  0  0  0  0  0  0
   33.8762  -16.2851   35.6918 C   0  0  0  0  0  0  0  0  0  0  0  0
   34.3110  -17.5339   35.2999 C   0  0  0  0  0  0  0  0  0  0  0  0
   35.6073  -17.8622   35.6401 C   0  0  0  0  0  0  0  0  0  0  0  0
   36.2030  -19.0540   35.3315 C   0  0  0  0  0  0  0  0  0  0  0  0
   37.4703  -19.3790   35.6605 C   0  0  0  0  0  0  0  0  0  0  0  0
   38.2968  -18.4878   36.3666 C   0  0  0  0  0  0  0  0  0  0  0  0
   37.6901  -17.2662   36.6841 C   0  0  0  0  0  0  0  0  0  0  0  0
   36.4041  -16.9473   36.3454 C   0  0  0  0  0  0  0  0  0  0  0  0
   35.8971  -15.7501   36.6872 N   0  0  0  0  0  0  0  0  0  0  0  0
   32.6559  -12.5549   37.2380 C   0  0  0  0  0  0  0  0  0  0  0  0
   33.8922  -11.9421   37.3857 C   0  0  0  0  0  0  0  0  0  0  0  0
   34.8090  -12.9223   37.0857 C   0  0  0  0  0  0  0  0  0  0  0  0
   34.1328  -14.0577   36.7764 C   0  0  0  0  0  0  0  0  0  0  0  0
   32.8432  -13.7842   36.8830 O   0  0  0  0  0  0  0  0  0  0  0  0
   31.7206  -10.3438   37.4293 C   0  0  0  0  0  0  0  0  0  0  0  0
   31.3846  -11.8223   37.4752 C   0  0  0  0  0  0  0  0  0  0  0  0
   33.5047  -18.4512   34.6026 N   0  0  0  0  0  0  0  0  0  0  0  0
   33.6870  -18.5256   33.5420 H   0  0  0  0  0  0  0  0  0  0  0  0
   32.4794  -19.3128   35.0882 C   0  0  0  0  0  0  0  0  0  0  0  0
   31.0869  -18.7685   35.0606 C   0  0  0  0  0  0  0  0  0  0  0  0
   30.1689  -20.0119   35.0513 C   0  0  0  0  0  0  0  0  0  0  0  0
   30.4428  -20.7637   36.2287 N   0  0  0  0  0  0  0  0  0  0  0  0
   31.7806  -21.1976   36.4254 C   0  0  0  0  0  0  0  0  0  0  0  0
   32.7179  -19.9672   36.4151 C   0  0  0  0  0  0  0  0  0  0  0  0
   29.4254  -21.6659   36.6527 C   0  0  0  0  0  0  0  0  0  0  0  0
   28.9696  -22.6320   35.6163 C   0  0  0  0  0  0  0  0  0  0  0  0
   28.2265  -20.8983   37.1633 C   0  0  0  0  0  0  0  0  0  0  0  0
   37.9973  -20.6054   35.3111 O   0  0  0  0  0  0  0  0  0  0  0  0
   38.6864  -20.7346   34.0930 C   0  0  0  0  0  0  0  0  0  0  0  0
   39.5106  -18.8041   36.6795 O   0  0  0  0  0  0  0  0  0  0  0  0
   40.7142  -19.1020   37.0153 C   0  0  0  0  0  0  0  0  0  0  0  0
   41.8306  -18.2280   36.4242 C   0  0  0  0  0  0  0  0  0  0  0  0
   43.1278  -18.4383   37.1255 C   0  0  0  0  0  0  0  0  0  0  0  0
   42.9822  -19.2030   38.3232 N   0  0  0  0  0  0  0  0  0  0  0  0
   43.8833  -20.3393   38.3664 C   0  0  0  0  0  0  0  0  0  0  0  0
   44.0841  -20.5985   39.8503 C   0  0  0  0  0  0  0  0  0  0  0  0
   44.0296  -19.2094   40.4150 C   0  0  0  0  0  0  0  0  0  0  0  0
   43.1314  -18.4478   39.5152 C   0  0  0  0  0  0  0  0  0  0  0  0
 16 17  1  0  0  0
 17 11  1  0  0  0
 11 12  2  0  0  0
 12 13  1  0  0  0
 13 14  2  0  0  0
 14 15  1  0  0  0
 14  1  1  0  0  0
  1  2  2  0  0  0
  2  3  1  0  0  0
  3 18  1  0  0  0
 18 20  1  0  0  0
 20 21  1  0  0  0
 21 22  1  0  0  0
 22 23  1  0  0  0
 23 24  1  0  0  0
 24 25  1  0  0  0
 23 26  1  0  0  0
 26 27  1  0  0  0
 26 28  1  0  0  0
  3  4  2  0  0  0
  4  5  1  0  0  0
  5  6  2  0  0  0
  6 29  1  0  0  0
 29 30  1  0  0  0
  6  7  1  0  0  0
  7 31  1  0  0  0
 31 32  1  0  0  0
 32 33  1  0  0  0
 33 34  1  0  0  0
 34 35  1  0  0  0
 35 36  1  0  0  0
 36 37  1  0  0  0
 37 38  1  0  0  0
 38 39  1  0  0  0
  7  8  2  0  0  0
  8  9  1  0  0  0
  9 10  2  0  0  0
 15 11  1  0  0  0
 10  1  1  0  0  0
 25 20  1  0  0  0
  9  4  1  0  0  0
 39 35  1  0  0  0
 18 19  1  0  0  0
M  END
> <minimizedAffinity>
-7.49314

> <CNNscore>
0.2256723195

> <CNNaffinity>
6.2799029350

> <CNN_VS>
1.4172002077

> <CNNaffinity_variance>
0.2253144681

$$$$
[H]c1c(-c2nc3c([H])c(OC([H])([H])C([H])([H])C([H])([H])N4C([H])([H])C([H])([H])C([H])([H])C4([H])[H])c(OC([H])([H])[H])c([H])c3c(N([H])C3([H])C([H])([H])C([H])([H])N(C([H])(C([H])([H])[H])C([H])([H])[H])C([H])([H])C3([H])[H])c2[H])oc(C([H])([H])C([H])([H])[H])c1[H]


 39 43  0  0  0  0  0  0  0  0999 V2000
   36.5638  -17.3355   37.1064 C   0  0  0  0  0  0  0  0  0  0  0  0
   37.6463  -17.8931   36.4431 C   0  0  0  0  0  0  0  0  0  0  0  0
   37.8473  -19.2495   36.2955 C   0  0  0  0  0  0  0  0  0  0  0  0
   36.8913  -20.0717   36.8555 C   0  0  0  0  0  0  0  0  0  0  0  0
   36.9309  -21.4379   36.8073 C   0  0  0  0  0  0  0  0  0  0  0  0
   35.9994  -22.2460   37.3546 C   0  0  0  0  0  0  0  0  0  0  0  0
   34.8854  -21.7258   38.0360 C   0  0  0  0  0  0  0  0  0  0  0  0
   34.8417  -20.3270   38.0875 C   0  0  0  0  0  0  0  0  0  0  0  0
   35.7919  -19.5173   37.5289 C   0  0  0  0  0  0  0  0  0  0  0  0
   35.6761  -18.1815   37.6249 N   0  0  0  0  0  0  0  0  0  0  0  0
   35.4098  -13.9692   37.1699 C   0  0  0  0  0  0  0  0  0  0  0  0
   36.7150  -13.7131   37.5654 C   0  0  0  0  0  0  0  0  0  0  0  0
   37.3226  -14.9465   37.5942 C   0  0  0  0  0  0  0  0  0  0  0  0
   36.4077  -15.8806   37.2302 C   0  0  0  0  0  0  0  0  0  0  0  0
   35.2754  -15.2422   36.9859 O   0  0  0  0  0  0  0  0  0  0  0  0
   35.0935  -11.7710   36.2384 C   0  0  0  0  0  0  0  0  0  0  0  0
   34.4099  -12.8806   37.0145 C   0  0  0  0  0  0  0  0  0  0  0  0
   38.9453  -19.7997   35.6103 N   0  0  0  0  0  0  0  0  0  0  0  0
   38.7183  -20.2932   34.6783 H   0  0  0  0  0  0  0  0  0  0  0  0
   40.3271  -19.7977   35.9569 C   0  0  0  0  0  0  0  0  0  0  0  0
   40.9136  -21.1147   36.3538 C   0  0  0  0  0  0  0  0  0  0  0  0
   42.4311  -20.9733   36.0969 C   0  0  0  0  0  0  0  0  0  0  0  0
   42.9087  -19.8953   36.8946 N   0  0  0  0  0  0  0  0  0  0  0  0
   42.3026  -18.6258   36.7005 C   0  0  0  0  0  0  0  0  0  0  0  0
   40.7784  -18.7526   36.9315 C   0  0  0  0  0  0  0  0  0  0  0  0
   44.3062  -19.8841   37.1694 C   0  0  0  0  0  0  0  0  0  0  0  0
   45.1831  -20.0373   35.9765 C   0  0  0  0  0  0  0  0  0  0  0  0
   44.6507  -20.9659   38.1687 C   0  0  0  0  0  0  0  0  0  0  0  0
   36.1133  -23.6179   37.2613 O   0  0  0  0  0  0  0  0  0  0  0  0
   37.3908  -24.2035   37.2781 C   0  0  0  0  0  0  0  0  0  0  0  0
   33.9956  -22.5044   38.5586 O   0  0  0  0  0  0  0  0  0  0  0  0
   33.1225  -23.2722   39.1048 C   0  0  0  0  0  0  0  0  0  0  0  0
   32.5857  -24.4262   38.2447 C   0  0  0  0  0  0  0  0  0  0  0  0
   32.2557  -23.9792   36.8627 C   0  0  0  0  0  0  0  0  0  0  0  0
   31.3837  -24.8885   36.1894 N   0  0  0  0  0  0  0  0  0  0  0  0
   30.4792  -24.2139   35.2773 C   0  0  0  0  0  0  0  0  0  0  0  0
   30.1530  -25.2666   34.2309 C   0  0  0  0  0  0  0  0  0  0  0  0
   31.4440  -26.0265   34.1464 C   0  0  0  0  0  0  0  0  0  0  0  0
   32.0543  -25.9273   35.4933 C   0  0  0  0  0  0  0  0  0  0  0  0
 16 17  1  0  0  0
 17 11  1  0  0  0
 11 12  2  0  0  0
 12 13  1  0  0  0
 13 14  2  0  0  0
 14 15  1  0  0  0
 14  1  1  0  0  0
  1  2  2  0  0  0
  2  3  1  0  0  0
  3 18  1  0  0  0
 18 20  1  0  0  0
 20 21  1  0  0  0
 21 22  1  0  0  0
 22 23  1  0  0  0
 23 24  1  0  0  0
 24 25  1  0  0  0
 23 26  1  0  0  0
 26 27  1  0  0  0
 26 28  1  0  0  0
  3  4  2  0  0  0
  4  5  1  0  0  0
  5  6  2  0  0  0
  6 29  1  0  0  0
 29 30  1  0  0  0
  6  7  1  0  0  0
  7 31  1  0  0  0
 31 32  1  0  0  0
 32 33  1  0  0  0
 33 34  1  0  0  0
 34 35  1  0  0  0
 35 36  1  0  0  0
 36 37  1  0  0  0
 37 38  1  0  0  0
 38 39  1  0  0  0
  7  8  2  0  0  0
  8  9  1  0  0  0
  9 10  2  0  0  0
 15 11  1  0  0  0
 10  1  1  0  0  0
 25 20  1  0  0  0
  9  4  1  0  0  0
 39 35  1  0  0  0
 18 19  1  0  0  0
M  END
> <minimizedAffinity>
-5.33050

> <CNNscore>
0.2120071650

> <CNNaffinity>
6.1346955299

> <CNN_VS>
1.3005994558

> <CNNaffinity_variance>
0.0598153882

$$$$
[H]c1c(OC([H])([H])C([H])([H])OC([H])([H])C([H])([H])N(C([H])([H])[H])C([H])([H])[H])c(OC([H])([H])[H])c([H])c2c(N([H])C3([H])C([H])([H])C([H])([H])N(C([H])(C([H])([H])[H])C([H])([H])[H])C([H])([H])C3([H])[H])nc(C3([H])C([H])([H])C([H])([H])C([H])([H])C([H])([H])C3([H])[H])nc12


 38 41  0  0  0  0  0  0  0  0999 V2000
   35.9246  -14.0073   36.6089 C   0  0  0  0  0  0  0  0  0  0  0  0
   36.4319  -15.2751   36.4129 C   0  0  0  0  0  0  0  0  0  0  0  0
   35.6973  -16.3739   36.0820 C   0  0  0  0  0  0  0  0  0  0  0  0
   36.2549  -17.6071   35.9001 C   0  0  0  0  0  0  0  0  0  0  0  0
   35.4006  -18.6288   35.5697 N   0  0  0  0  0  0  0  0  0  0  0  0
   34.0835  -18.4587   35.4257 C   0  0  0  0  0  0  0  0  0  0  0  0
   33.5756  -17.2287   35.6134 N   0  0  0  0  0  0  0  0  0  0  0  0
   34.3230  -16.1580   35.9394 C   0  0  0  0  0  0  0  0  0  0  0  0
   33.7512  -14.9100   36.1229 C   0  0  0  0  0  0  0  0  0  0  0  0
   34.5352  -13.8484   36.4515 C   0  0  0  0  0  0  0  0  0  0  0  0
   33.1530  -19.5665   35.0774 C   0  0  0  0  0  0  0  0  0  0  0  0
   31.9990  -19.0534   34.2268 C   0  0  0  0  0  0  0  0  0  0  0  0
   30.6628  -19.2194   34.8920 C   0  0  0  0  0  0  0  0  0  0  0  0
   30.3923  -20.6543   35.2794 C   0  0  0  0  0  0  0  0  0  0  0  0
   31.6392  -21.3259   35.8016 C   0  0  0  0  0  0  0  0  0  0  0  0
   32.6440  -20.2992   36.2808 C   0  0  0  0  0  0  0  0  0  0  0  0
   38.0654  -13.1251   37.3895 C   0  0  0  0  0  0  0  0  0  0  0  0
   36.7377  -12.9613   36.9398 O   0  0  0  0  0  0  0  0  0  0  0  0
   37.6312  -17.8334   36.0528 N   0  0  0  0  0  0  0  0  0  0  0  0
   38.2159  -17.1554   36.5666 H   0  0  0  0  0  0  0  0  0  0  0  0
   38.3256  -18.9930   35.5248 C   0  0  0  0  0  0  0  0  0  0  0  0
   38.7266  -18.8070   34.1026 C   0  0  0  0  0  0  0  0  0  0  0  0
   39.7885  -19.6901   33.5817 C   0  0  0  0  0  0  0  0  0  0  0  0
   40.7425  -20.1644   34.5200 N   0  0  0  0  0  0  0  0  0  0  0  0
   40.2119  -20.4844   35.8154 C   0  0  0  0  0  0  0  0  0  0  0  0
   39.5770  -19.2135   36.3391 C   0  0  0  0  0  0  0  0  0  0  0  0
   41.6852  -21.1017   34.0230 C   0  0  0  0  0  0  0  0  0  0  0  0
   41.1035  -22.4278   33.6417 C   0  0  0  0  0  0  0  0  0  0  0  0
   42.8383  -21.2102   34.9924 C   0  0  0  0  0  0  0  0  0  0  0  0
   34.0612  -12.6075   36.6406 O   0  0  0  0  0  0  0  0  0  0  0  0
   33.4925  -12.0562   37.7659 C   0  0  0  0  0  0  0  0  0  0  0  0
   32.0539  -12.4791   37.9083 C   0  0  0  0  0  0  0  0  0  0  0  0
   31.2495  -11.8747   36.9312 O   0  0  0  0  0  0  0  0  0  0  0  0
   30.7065  -10.6766   37.3066 C   0  0  0  0  0  0  0  0  0  0  0  0
   29.2369  -10.9239   37.6435 C   0  0  0  0  0  0  0  0  0  0  0  0
   29.0241  -10.8709   39.0778 N   0  0  0  0  0  0  0  0  0  0  0  0
   28.4767   -9.5775   39.4325 C   0  0  0  0  0  0  0  0  0  0  0  0
   28.0769  -11.8863   39.4984 C   0  0  0  0  0  0  0  0  0  0  0  0
 17 18  1  0  0  0
 18  1  1  0  0  0
  1  2  2  0  0  0
  2  3  1  0  0  0
  3  4  2  0  0  0
  4 19  1  0  0  0
 19 21  1  0  0  0
 21 22  1  0  0  0
 22 23  1  0  0  0
 23 24  1  0  0  0
 24 25  1  0  0  0
 25 26  1  0  0  0
 24 27  1  0  0  0
 27 28  1  0  0  0
 27 29  1  0  0  0
  4  5  1  0  0  0
  5  6  2  0  0  0
  6  7  1  0  0  0
  7  8  2  0  0  0
  8  9  1  0  0  0
  9 10  2  0  0  0
 10 30  1  0  0  0
 30 31  1  0  0  0
 31 32  1  0  0  0
 32 33  1  0  0  0
 33 34  1  0  0  0
 34 35  1  0  0  0
 35 36  1  0  0  0
 36 37  1  0  0  0
 36 38  1  0  0  0
  6 11  1  0  0  0
 11 12  1  0  0  0
 12 13  1  0  0  0
 13 14  1  0  0  0
 14 15  1  0  0  0
 15 16  1  0  0  0
 10  1  1  0  0  0
 16 11  1  0  0  0
  8  3  1  0  0  0
 26 21  1  0  0  0
 19 20  1  0  0  0
M  END
> <minimizedAffinity>
-7.92079

> <CNNscore>
0.7934222817

> <CNNaffinity>
7.2669744492

> <CNN_VS>
5.7657794952

> <CNNaffinity_variance>
0.0605002157

$$$$
[H]c1c(OC([H])([H])C([H])([H])OC([H])([H])C([H])([H])N(C([H])([H])[H])C([H])([H])[H])c(OC([H])([H])[H])c([H])c2c(N([H])C3([H])C([H])([H])C([H])([H])N(C([H])(C([H])([H])[H])C([H])([H])[H])C([H])([H])C3([H])[H])nc(C3([H])C([H])([H])C([H])([H])C([H])([H])C([H])([H])C3([H])[H])nc12


 38 41  0  0  0  0  0  0  0  0999 V2000
   35.9296  -14.3665   36.6050 C   0  0  0  0  0  0  0  0  0  0  0  0
   36.4691  -15.5125   36.0585 C   0  0  0  0  0  0  0  0  0  0  0  0
   35.7541  -16.5827   35.6113 C   0  0  0  0  0  0  0  0  0  0  0  0
   36.3433  -17.6933   35.0781 C   0  0  0  0  0  0  0  0  0  0  0  0
   35.5062  -18.6998   34.6669 N   0  0  0  0  0  0  0  0  0  0  0  0
   34.1762  -18.6279   34.7692 C   0  0  0  0  0  0  0  0  0  0  0  0
   33.6370  -17.5170   35.2995 N   0  0  0  0  0  0  0  0  0  0  0  0
   34.3653  -16.4720   35.7339 C   0  0  0  0  0  0  0  0  0  0  0  0
   33.7616  -15.3487   36.2739 C   0  0  0  0  0  0  0  0  0  0  0  0
   34.5269  -14.3095   36.7031 C   0  0  0  0  0  0  0  0  0  0  0  0
   33.2661  -19.7217   34.3335 C   0  0  0  0  0  0  0  0  0  0  0  0
   31.8353  -19.2153   34.2113 C   0  0  0  0  0  0  0  0  0  0  0  0
   30.8899  -19.8986   35.1572 C   0  0  0  0  0  0  0  0  0  0  0  0
   30.8997  -21.3999   34.9890 C   0  0  0  0  0  0  0  0  0  0  0  0
   32.2961  -21.9145   34.7366 C   0  0  0  0  0  0  0  0  0  0  0  0
   33.3321  -20.9237   35.2250 C   0  0  0  0  0  0  0  0  0  0  0  0
   37.9771  -13.5369   37.6490 C   0  0  0  0  0  0  0  0  0  0  0  0
   36.7249  -13.3403   37.0285 O   0  0  0  0  0  0  0  0  0  0  0  0
   37.7363  -17.8161   34.9627 N   0  0  0  0  0  0  0  0  0  0  0  0
   38.3126  -16.9942   34.7219 H   0  0  0  0  0  0  0  0  0  0  0  0
   38.4601  -19.0575   35.1641 C   0  0  0  0  0  0  0  0  0  0  0  0
   39.8332  -19.0054   34.5896 C   0  0  0  0  0  0  0  0  0  0  0  0
   40.8080  -19.9972   35.0848 C   0  0  0  0  0  0  0  0  0  0  0  0
   40.6233  -20.4672   36.4116 N   0  0  0  0  0  0  0  0  0  0  0  0
   39.2546  -20.6528   36.8044 C   0  0  0  0  0  0  0  0  0  0  0  0
   38.5823  -19.3051   36.6477 C   0  0  0  0  0  0  0  0  0  0  0  0
   41.4998  -21.5028   36.8282 C   0  0  0  0  0  0  0  0  0  0  0  0
   42.9085  -21.0626   37.0811 C   0  0  0  0  0  0  0  0  0  0  0  0
   41.3982  -22.6597   35.8627 C   0  0  0  0  0  0  0  0  0  0  0  0
   34.0207  -13.1851   37.2320 O   0  0  0  0  0  0  0  0  0  0  0  0
   32.8977  -13.0191   38.0098 C   0  0  0  0  0  0  0  0  0  0  0  0
   32.4544  -11.5797   38.0208 C   0  0  0  0  0  0  0  0  0  0  0  0
   33.5530  -10.7123   38.1089 O   0  0  0  0  0  0  0  0  0  0  0  0
   33.3152   -9.4483   37.6432 C   0  0  0  0  0  0  0  0  0  0  0  0
   34.4068   -9.1208   36.6256 C   0  0  0  0  0  0  0  0  0  0  0  0
   34.0762   -7.9147   35.8898 N   0  0  0  0  0  0  0  0  0  0  0  0
   34.8308   -7.8867   34.6537 C   0  0  0  0  0  0  0  0  0  0  0  0
   32.6655   -7.8851   35.5516 C   0  0  0  0  0  0  0  0  0  0  0  0
 17 18  1  0  0  0
 18  1  1  0  0  0
  1  2  2  0  0  0
  2  3  1  0  0  0
  3  4  2  0  0  0
  4 19  1  0  0  0
 19 21  1  0  0  0
 21 22  1  0  0  0
 22 23  1  0  0  0
 23 24  1  0  0  0
 24 25  1  0  0  0
 25 26  1  0  0  0
 24 27  1  0  0  0
 27 28  1  0  0  0
 27 29  1  0  0  0
  4  5  1  0  0  0
  5  6  2  0  0  0
  6  7  1  0  0  0
  7  8  2  0  0  0
  8  9  1  0  0  0
  9 10  2  0  0  0
 10 30  1  0  0  0
 30 31  1  0  0  0
 31 32  1  0  0  0
 32 33  1  0  0  0
 33 34  1  0  0  0
 34 35  1  0  0  0
 35 36  1  0  0  0
 36 37  1  0  0  0
 36 38  1  0  0  0
  6 11  1  0  0  0
 11 12  1  0  0  0
 12 13  1  0  0  0
 13 14  1  0  0  0
 14 15  1  0  0  0
 15 16  1  0  0  0
 10  1  1  0  0  0
 16 11  1  0  0  0
  8  3  1  0  0  0
 26 21  1  0  0  0
 19 20  1  0  0  0
M  END
> <minimizedAffinity>
-7.03836

> <CNNscore>
0.6316224337

> <CNNaffinity>
7.0590653419

> <CNN_VS>
4.4586639404

> <CNNaffinity_variance>
0.1051933765

$$$$
[H]c1c(OC([H])([H])C([H])([H])OC([H])([H])C([H])([H])N(C([H])([H])[H])C([H])([H])[H])c(OC([H])([H])[H])c([H])c2c(N([H])C3([H])C([H])([H])C([H])([H])N(C([H])(C([H])([H])[H])C([H])([H])[H])C([H])([H])C3([H])[H])nc(C3([H])C([H])([H])C([H])([H])C([H])([H])C([H])([H])C3([H])[H])nc12


 38 41  0  0  0  0  0  0  0  0999 V2000
   36.0221  -14.3576   36.5917 C   0  0  0  0  0  0  0  0  0  0  0  0
   36.5560  -15.5700   36.2071 C   0  0  0  0  0  0  0  0  0  0  0  0
   35.8372  -16.6472   35.7833 C   0  0  0  0  0  0  0  0  0  0  0  0
   36.4210  -17.8251   35.4140 C   0  0  0  0  0  0  0  0  0  0  0  0
   35.5803  -18.8306   35.0076 N   0  0  0  0  0  0  0  0  0  0  0  0
   34.2520  -18.6959   34.9639 C   0  0  0  0  0  0  0  0  0  0  0  0
   33.7182  -17.5200   35.3357 N   0  0  0  0  0  0  0  0  0  0  0  0
   34.4504  -16.4696   35.7502 C   0  0  0  0  0  0  0  0  0  0  0  0
   33.8521  -15.2777   36.1238 C   0  0  0  0  0  0  0  0  0  0  0  0
   34.6212  -14.2352   36.5377 C   0  0  0  0  0  0  0  0  0  0  0  0
   33.3369  -19.7876   34.5333 C   0  0  0  0  0  0  0  0  0  0  0  0
   31.9602  -19.2335   34.1928 C   0  0  0  0  0  0  0  0  0  0  0  0
   30.8765  -19.7714   35.0826 C   0  0  0  0  0  0  0  0  0  0  0  0
   30.8205  -21.2809   35.0656 C   0  0  0  0  0  0  0  0  0  0  0  0
   32.2053  -21.8808   35.0327 C   0  0  0  0  0  0  0  0  0  0  0  0
   33.2335  -20.8916   35.5405 C   0  0  0  0  0  0  0  0  0  0  0  0
   38.0560  -13.5240   37.6590 C   0  0  0  0  0  0  0  0  0  0  0  0
   36.8209  -13.3297   37.0042 O   0  0  0  0  0  0  0  0  0  0  0  0
   37.8107  -18.0143   35.4556 N   0  0  0  0  0  0  0  0  0  0  0  0
   38.4444  -17.3040   35.0562 H   0  0  0  0  0  0  0  0  0  0  0  0
   38.4536  -19.1763   36.0403 C   0  0  0  0  0  0  0  0  0  0  0  0
   39.8859  -18.9231   36.3604 C   0  0  0  0  0  0  0  0  0  0  0  0
   40.5299  -19.8319   37.3290 C   0  0  0  0  0  0  0  0  0  0  0  0
   39.6888  -20.4209   38.3093 N   0  0  0  0  0  0  0  0  0  0  0  0
   38.3820  -20.7919   37.8436 C   0  0  0  0  0  0  0  0  0  0  0  0
   37.7408  -19.5221   37.3248 C   0  0  0  0  0  0  0  0  0  0  0  0
   40.3041  -21.3783   39.1573 C   0  0  0  0  0  0  0  0  0  0  0  0
   40.9185  -22.5411   38.4414 C   0  0  0  0  0  0  0  0  0  0  0  0
   39.3300  -21.7866   40.2368 C   0  0  0  0  0  0  0  0  0  0  0  0
   34.1210  -13.0472   36.9102 O   0  0  0  0  0  0  0  0  0  0  0  0
   32.8109  -12.6833   37.1217 C   0  0  0  0  0  0  0  0  0  0  0  0
   32.4000  -12.9424   38.5473 C   0  0  0  0  0  0  0  0  0  0  0  0
   31.2698  -12.1875   38.8936 O   0  0  0  0  0  0  0  0  0  0  0  0
   30.3581  -12.0378   37.8850 C   0  0  0  0  0  0  0  0  0  0  0  0
   29.9171  -10.5749   37.8778 C   0  0  0  0  0  0  0  0  0  0  0  0
   28.5363  -10.4540   38.3067 N   0  0  0  0  0  0  0  0  0  0  0  0
   27.8874  -11.7446   38.1994 C   0  0  0  0  0  0  0  0  0  0  0  0
   28.4599  -10.0306   39.6925 C   0  0  0  0  0  0  0  0  0  0  0  0
 17 18  1  0  0  0
 18  1  1  0  0  0
  1  2  2  0  0  0
  2  3  1  0  0  0
  3  4  2  0  0  0
  4 19  1  0  0  0
 19 21  1  0  0  0
 21 22  1  0  0  0
 22 23  1  0  0  0
 23 24  1  0  0  0
 24 25  1  0  0  0
 25 26  1  0  0  0
 24 27  1  0  0  0
 27 28  1  0  0  0
 27 29  1  0  0  0
  4  5  1  0  0  0
  5  6  2  0  0  0
  6  7  1  0  0  0
  7  8  2  0  0  0
  8  9  1  0  0  0
  9 10  2  0  0  0
 10 30  1  0  0  0
 30 31  1  0  0  0
 31 32  1  0  0  0
 32 33  1  0  0  0
 33 34  1  0  0  0
 34 35  1  0  0  0
 35 36  1  0  0  0
 36 37  1  0  0  0
 36 38  1  0  0  0
  6 11  1  0  0  0
 11 12  1  0  0  0
 12 13  1  0  0  0
 13 14  1  0  0  0
 14 15  1  0  0  0
 15 16  1  0  0  0
 10  1  1  0  0  0
 16 11  1  0  0  0
  8  3  1  0  0  0
 26 21  1  0  0  0
 19 20  1  0  0  0
M  END
> <minimizedAffinity>
-7.34334

> <CNNscore>
0.5754427314

> <CNNaffinity>
6.8506317139

> <CNN_VS>
3.9421463013

> <CNNaffinity_variance>
0.2032368928

$$$$
[H]c1c(OC([H])([H])C([H])([H])OC([H])([H])C([H])([H])N(C([H])([H])[H])C([H])([H])[H])c(OC([H])([H])[H])c([H])c2c(N([H])C3([H])C([H])([H])C([H])([H])N(C([H])(C([H])([H])[H])C([H])([H])[H])C([H])([H])C3([H])[H])nc(C3([H])C([H])([H])C([H])([H])C([H])([H])C([H])([H])C3([H])[H])nc12


 38 41  0  0  0  0  0  0  0  0999 V2000
   36.0201  -15.2200   36.0744 C   0  0  0  0  0  0  0  0  0  0  0  0
   36.3285  -16.3294   35.3148 C   0  0  0  0  0  0  0  0  0  0  0  0
   35.4585  -17.3261   34.9887 C   0  0  0  0  0  0  0  0  0  0  0  0
   35.8204  -18.4034   34.2315 C   0  0  0  0  0  0  0  0  0  0  0  0
   34.8459  -19.3354   33.9775 N   0  0  0  0  0  0  0  0  0  0  0  0
   33.5953  -19.2241   34.4337 C   0  0  0  0  0  0  0  0  0  0  0  0
   33.2809  -18.1481   35.1749 N   0  0  0  0  0  0  0  0  0  0  0  0
   34.1589  -17.1758   35.4830 C   0  0  0  0  0  0  0  0  0  0  0  0
   33.7856  -16.0859   36.2518 C   0  0  0  0  0  0  0  0  0  0  0  0
   34.6975  -15.1204   36.5447 C   0  0  0  0  0  0  0  0  0  0  0  0
   32.5389  -20.2380   34.1685 C   0  0  0  0  0  0  0  0  0  0  0  0
   31.1542  -19.6411   34.3800 C   0  0  0  0  0  0  0  0  0  0  0  0
   30.3898  -20.3128   35.4845 C   0  0  0  0  0  0  0  0  0  0  0  0
   30.2587  -21.8016   35.2646 C   0  0  0  0  0  0  0  0  0  0  0  0
   31.5286  -22.3859   34.6950 C   0  0  0  0  0  0  0  0  0  0  0  0
   32.7119  -21.4849   34.9804 C   0  0  0  0  0  0  0  0  0  0  0  0
   37.5990  -14.1553   37.6055 C   0  0  0  0  0  0  0  0  0  0  0  0
   36.9587  -14.2680   36.3529 O   0  0  0  0  0  0  0  0  0  0  0  0
   37.1252  -18.5665   33.7419 N   0  0  0  0  0  0  0  0  0  0  0  0
   37.4425  -18.0306   32.9187 H   0  0  0  0  0  0  0  0  0  0  0  0
   38.1036  -19.4651   34.3256 C   0  0  0  0  0  0  0  0  0  0  0  0
   39.4812  -18.9010   34.2787 C   0  0  0  0  0  0  0  0  0  0  0  0
   40.4790  -19.4844   35.1968 C   0  0  0  0  0  0  0  0  0  0  0  0
   39.9876  -20.0273   36.4131 N   0  0  0  0  0  0  0  0  0  0  0  0
   38.7281  -20.7089   36.3080 C   0  0  0  0  0  0  0  0  0  0  0  0
   37.7404  -19.6939   35.7724 C   0  0  0  0  0  0  0  0  0  0  0  0
   40.9455  -20.6849   37.2281 C   0  0  0  0  0  0  0  0  0  0  0  0
   40.4347  -21.9062   37.9278 C   0  0  0  0  0  0  0  0  0  0  0  0
   41.5786  -19.6806   38.1617 C   0  0  0  0  0  0  0  0  0  0  0  0
   34.4153  -14.0320   37.2769 O   0  0  0  0  0  0  0  0  0  0  0  0
   33.8767  -12.8307   36.8767 C   0  0  0  0  0  0  0  0  0  0  0  0
   32.5281  -13.0284   36.2358 C   0  0  0  0  0  0  0  0  0  0  0  0
   31.5478  -12.2503   36.8690 O   0  0  0  0  0  0  0  0  0  0  0  0
   31.5610  -12.3244   38.2348 C   0  0  0  0  0  0  0  0  0  0  0  0
   30.1089  -12.3077   38.7097 C   0  0  0  0  0  0  0  0  0  0  0  0
   29.8663  -13.3822   39.6541 N   0  0  0  0  0  0  0  0  0  0  0  0
   30.3199  -12.9753   40.9682 C   0  0  0  0  0  0  0  0  0  0  0  0
   28.4495  -13.6818   39.7445 C   0  0  0  0  0  0  0  0  0  0  0  0
 17 18  1  0  0  0
 18  1  1  0  0  0
  1  2  2  0  0  0
  2  3  1  0  0  0
  3  4  2  0  0  0
  4 19  1  0  0  0
 19 21  1  0  0  0
 21 22  1  0  0  0
 22 23  1  0  0  0
 23 24  1  0  0  0
 24 25  1  0  0  0
 25 26  1  0  0  0
 24 27  1  0  0  0
 27 28  1  0  0  0
 27 29  1  0  0  0
  4  5  1  0  0  0
  5  6  2  0  0  0
  6  7  1  0  0  0
  7  8  2  0  0  0
  8  9  1  0  0  0
  9 10  2  0  0  0
 10 30  1  0  0  0
 30 31  1  0  0  0
 31 32  1  0  0  0
 32 33  1  0  0  0
 33 34  1  0  0  0
 34 35  1  0  0  0
 35 36  1  0  0  0
 36 37  1  0  0  0
 36 38  1  0  0  0
  6 11  1  0  0  0
 11 12  1  0  0  0
 12 13  1  0  0  0
 13 14  1  0  0  0
 14 15  1  0  0  0
 15 16  1  0  0  0
 10  1  1  0  0  0
 16 11  1  0  0  0
  8  3  1  0  0  0
 26 21  1  0  0  0
 19 20  1  0  0  0
M  END
> <minimizedAffinity>
-7.06023

> <CNNscore>
0.5630873442

> <CNNaffinity>
6.9397163391

> <CNN_VS>
3.9076664448

> <CNNaffinity_variance>
0.0395330302

$$$$
[H]c1c(OC([H])([H])C([H])([H])OC([H])([H])C([H])([H])N(C([H])([H])[H])C([H])([H])[H])c(OC([H])([H])[H])c([H])c2c(N([H])C3([H])C([H])([H])C([H])([H])N(C([H])(C([H])([H])[H])C([H])([H])[H])C([H])([H])C3([H])[H])nc(C3([H])C([H])([H])C([H])([H])C([H])([H])C([H])([H])C3([H])[H])nc12


 38 41  0  0  0  0  0  0  0  0999 V2000
   36.6147  -14.9626   37.4794 C   0  0  0  0  0  0  0  0  0  0  0  0
   36.8810  -16.2997   37.2692 C   0  0  0  0  0  0  0  0  0  0  0  0
   36.0566  -17.1746   36.6278 C   0  0  0  0  0  0  0  0  0  0  0  0
   36.3732  -18.4908   36.4482 C   0  0  0  0  0  0  0  0  0  0  0  0
   35.4524  -19.2629   35.7855 N   0  0  0  0  0  0  0  0  0  0  0  0
   34.2941  -18.7813   35.3263 C   0  0  0  0  0  0  0  0  0  0  0  0
   34.0218  -17.4803   35.5239 N   0  0  0  0  0  0  0  0  0  0  0  0
   34.8538  -16.6354   36.1605 C   0  0  0  0  0  0  0  0  0  0  0  0
   34.5266  -15.3016   36.3397 C   0  0  0  0  0  0  0  0  0  0  0  0
   35.3902  -14.4742   36.9872 C   0  0  0  0  0  0  0  0  0  0  0  0
   33.2891  -19.6181   34.6162 C   0  0  0  0  0  0  0  0  0  0  0  0
   31.9545  -18.8915   34.5200 C   0  0  0  0  0  0  0  0  0  0  0  0
   30.8472  -19.6036   35.2427 C   0  0  0  0  0  0  0  0  0  0  0  0
   30.6728  -21.0249   34.7613 C   0  0  0  0  0  0  0  0  0  0  0  0
   32.0055  -21.6790   34.4883 C   0  0  0  0  0  0  0  0  0  0  0  0
   33.1165  -20.9712   35.2353 C   0  0  0  0  0  0  0  0  0  0  0  0
   38.3987  -13.2928   37.4716 C   0  0  0  0  0  0  0  0  0  0  0  0
   37.5018  -14.1573   38.1349 O   0  0  0  0  0  0  0  0  0  0  0  0
   37.5728  -19.0412   36.9243 N   0  0  0  0  0  0  0  0  0  0  0  0
   38.4785  -18.6250   36.6560 H   0  0  0  0  0  0  0  0  0  0  0  0
   37.6435  -20.1957   37.8005 C   0  0  0  0  0  0  0  0  0  0  0  0
   36.3796  -20.4006   38.5611 C   0  0  0  0  0  0  0  0  0  0  0  0
   36.1518  -21.7393   39.1398 C   0  0  0  0  0  0  0  0  0  0  0  0
   36.7457  -22.8372   38.4635 N   0  0  0  0  0  0  0  0  0  0  0  0
   38.0494  -22.5807   37.9187 C   0  0  0  0  0  0  0  0  0  0  0  0
   37.8862  -21.4230   36.9565 C   0  0  0  0  0  0  0  0  0  0  0  0
   36.6119  -24.0997   39.0979 C   0  0  0  0  0  0  0  0  0  0  0  0
   35.5486  -24.1584   40.1506 C   0  0  0  0  0  0  0  0  0  0  0  0
   37.9654  -24.5569   39.5879 C   0  0  0  0  0  0  0  0  0  0  0  0
   35.1515  -13.1705   37.1964 O   0  0  0  0  0  0  0  0  0  0  0  0
   33.9821  -12.4638   37.0337 C   0  0  0  0  0  0  0  0  0  0  0  0
   32.9773  -12.8274   38.0952 C   0  0  0  0  0  0  0  0  0  0  0  0
   32.0981  -11.7637   38.3457 O   0  0  0  0  0  0  0  0  0  0  0  0
   30.9030  -11.8496   37.6859 C   0  0  0  0  0  0  0  0  0  0  0  0
   29.8253  -12.1535   38.7255 C   0  0  0  0  0  0  0  0  0  0  0  0
   28.8577  -11.0742   38.7909 N   0  0  0  0  0  0  0  0  0  0  0  0
   27.6766  -11.4447   38.0387 C   0  0  0  0  0  0  0  0  0  0  0  0
   28.4530  -10.8245   40.1617 C   0  0  0  0  0  0  0  0  0  0  0  0
 17 18  1  0  0  0
 18  1  1  0  0  0
  1  2  2  0  0  0
  2  3  1  0  0  0
  3  4  2  0  0  0
  4 19  1  0  0  0
 19 21  1  0  0  0
 21 22  1  0  0  0
 22 23  1  0  0  0
 23 24  1  0  0  0
 24 25  1  0  0  0
 25 26  1  0  0  0
 24 27  1  0  0  0
 27 28  1  0  0  0
 27 29  1  0  0  0
  4  5  1  0  0  0
  5  6  2  0  0  0
  6  7  1  0  0  0
  7  8  2  0  0  0
  8  9  1  0  0  0
  9 10  2  0  0  0
 10 30  1  0  0  0
 30 31  1  0  0  0
 31 32  1  0  0  0
 32 33  1  0  0  0
 33 34  1  0  0  0
 34 35  1  0  0  0
 35 36  1  0  0  0
 36 37  1  0  0  0
 36 38  1  0  0  0
  6 11  1  0  0  0
 11 12  1  0  0  0
 12 13  1  0  0  0
 13 14  1  0  0  0
 14 15  1  0  0  0
 15 16  1  0  0  0
 10  1  1  0  0  0
 16 11  1  0  0  0
  8  3  1  0  0  0
 26 21  1  0  0  0
 19 20  1  0  0  0
M  END
> <minimizedAffinity>
-6.69706

> <CNNscore>
0.5232452750

> <CNNaffinity>
6.5698928833

> <CNN_VS>
3.4376654625

> <CNNaffinity_variance>
0.1286607236

$$$$
[H]c1c(OC([H])([H])C([H])([H])OC([H])([H])C([H])([H])N(C([H])([H])[H])C([H])([H])[H])c(OC([H])([H])[H])c([H])c2c(N([H])C3([H])C([H])([H])C([H])([H])N(C([H])(C([H])([H])[H])C([H])([H])[H])C([H])([H])C3([H])[H])nc(C3([H])C([H])([H])C([H])([H])C([H])([H])C([H])([H])C3([H])[H])nc12


 38 41  0  0  0  0  0  0  0  0999 V2000
   32.0426  -21.2968   35.3380 C   0  0  0  0  0  0  0  0  0  0  0  0
   33.3515  -20.9072   35.5329 C   0  0  0  0  0  0  0  0  0  0  0  0
   33.7887  -19.6178   35.5870 C   0  0  0  0  0  0  0  0  0  0  0  0
   35.0999  -19.2907   35.7829 C   0  0  0  0  0  0  0  0  0  0  0  0
   35.4048  -17.9532   35.8157 N   0  0  0  0  0  0  0  0  0  0  0  0
   34.4875  -16.9935   35.6666 C   0  0  0  0  0  0  0  0  0  0  0  0
   33.2083  -17.3588   35.4763 N   0  0  0  0  0  0  0  0  0  0  0  0
   32.8010  -18.6406   35.4274 C   0  0  0  0  0  0  0  0  0  0  0  0
   31.4696  -18.9657   35.2280 C   0  0  0  0  0  0  0  0  0  0  0  0
   31.0912  -20.2713   35.1842 C   0  0  0  0  0  0  0  0  0  0  0  0
   34.8162  -15.5424   35.6916 C   0  0  0  0  0  0  0  0  0  0  0  0
   36.1773  -15.3094   36.3332 C   0  0  0  0  0  0  0  0  0  0  0  0
   36.0996  -14.4895   37.5890 C   0  0  0  0  0  0  0  0  0  0  0  0
   35.4257  -13.1570   37.3601 C   0  0  0  0  0  0  0  0  0  0  0  0
   34.2582  -13.2884   36.4124 C   0  0  0  0  0  0  0  0  0  0  0  0
   33.7615  -14.7182   36.3640 C   0  0  0  0  0  0  0  0  0  0  0  0
   32.2539  -23.5917   36.1502 C   0  0  0  0  0  0  0  0  0  0  0  0
   31.6940  -22.6166   35.2973 O   0  0  0  0  0  0  0  0  0  0  0  0
   36.0978  -20.2657   35.9323 N   0  0  0  0  0  0  0  0  0  0  0  0
   35.8602  -21.2678   35.8625 H   0  0  0  0  0  0  0  0  0  0  0  0
   37.4942  -19.9643   36.1866 C   0  0  0  0  0  0  0  0  0  0  0  0
   38.0691  -20.8291   37.2541 C   0  0  0  0  0  0  0  0  0  0  0  0
   39.5401  -20.9373   37.3131 C   0  0  0  0  0  0  0  0  0  0  0  0
   40.2421  -20.7784   36.0894 N   0  0  0  0  0  0  0  0  0  0  0  0
   39.7010  -19.7854   35.2044 C   0  0  0  0  0  0  0  0  0  0  0  0
   38.2748  -20.2053   34.9177 C   0  0  0  0  0  0  0  0  0  0  0  0
   41.6581  -20.7711   36.1855 C   0  0  0  0  0  0  0  0  0  0  0  0
   42.3709  -20.6602   34.8734 C   0  0  0  0  0  0  0  0  0  0  0  0
   42.1072  -21.9520   37.0130 C   0  0  0  0  0  0  0  0  0  0  0  0
   29.8231  -20.6697   35.0013 O   0  0  0  0  0  0  0  0  0  0  0  0
   29.0235  -21.4299   35.8236 C   0  0  0  0  0  0  0  0  0  0  0  0
   28.4618  -20.6018   36.9493 C   0  0  0  0  0  0  0  0  0  0  0  0
   27.3415  -21.2208   37.5229 O   0  0  0  0  0  0  0  0  0  0  0  0
   27.5619  -22.4984   37.9592 C   0  0  0  0  0  0  0  0  0  0  0  0
   27.0375  -22.5916   39.3913 C   0  0  0  0  0  0  0  0  0  0  0  0
   27.9999  -23.2602   40.2469 N   0  0  0  0  0  0  0  0  0  0  0  0
   29.2345  -23.4568   39.5153 C   0  0  0  0  0  0  0  0  0  0  0  0
   28.2983  -22.4561   41.4172 C   0  0  0  0  0  0  0  0  0  0  0  0
 17 18  1  0  0  0
 18  1  1  0  0  0
  1  2  2  0  0  0
  2  3  1  0  0  0
  3  4  2  0  0  0
  4 19  1  0  0  0
 19 21  1  0  0  0
 21 22  1  0  0  0
 22 23  1  0  0  0
 23 24  1  0  0  0
 24 25  1  0  0  0
 25 26  1  0  0  0
 24 27  1  0  0  0
 27 28  1  0  0  0
 27 29  1  0  0  0
  4  5  1  0  0  0
  5  6  2  0  0  0
  6  7  1  0  0  0
  7  8  2  0  0  0
  8  9  1  0  0  0
  9 10  2  0  0  0
 10 30  1  0  0  0
 30 31  1  0  0  0
 31 32  1  0  0  0
 32 33  1  0  0  0
 33 34  1  0  0  0
 34 35  1  0  0  0
 35 36  1  0  0  0
 36 37  1  0  0  0
 36 38  1  0  0  0
  6 11  1  0  0  0
 11 12  1  0  0  0
 12 13  1  0  0  0
 13 14  1  0  0  0
 14 15  1  0  0  0
 15 16  1  0  0  0
 10  1  1  0  0  0
 16 11  1  0  0  0
  8  3  1  0  0  0
 26 21  1  0  0  0
 19 20  1  0  0  0
M  END
> <minimizedAffinity>
-5.69138

> <CNNscore>
0.3401800990

> <CNNaffinity>
5.8034009933

> <CNN_VS>
1.9742015600

> <CNNaffinity_variance>
0.3547510803

$$$$
[H]c1c(OC([H])([H])C([H])([H])OC([H])([H])C([H])([H])N(C([H])([H])[H])C([H])([H])[H])c(OC([H])([H])[H])c([H])c2c(N([H])C3([H])C([H])([H])C([H])([H])N(C([H])(C([H])([H])[H])C([H])([H])[H])C([H])([H])C3([H])[H])nc(C3([H])C([H])([H])C([H])([H])C([H])([H])C([H])([H])C3([H])[H])nc12


 38 41  0  0  0  0  0  0  0  0999 V2000
   39.7592  -19.4651   36.8074 C   0  0  0  0  0  0  0  0  0  0  0  0
   38.8399  -18.4502   36.6405 C   0  0  0  0  0  0  0  0  0  0  0  0
   37.4931  -18.6202   36.5235 C   0  0  0  0  0  0  0  0  0  0  0  0
   36.6287  -17.5757   36.3598 C   0  0  0  0  0  0  0  0  0  0  0  0
   35.2965  -17.8869   36.2543 N   0  0  0  0  0  0  0  0  0  0  0  0
   34.8352  -19.1395   36.3052 C   0  0  0  0  0  0  0  0  0  0  0  0
   35.7197  -20.1381   36.4677 N   0  0  0  0  0  0  0  0  0  0  0  0
   37.0465  -19.9443   36.5817 C   0  0  0  0  0  0  0  0  0  0  0  0
   37.9179  -21.0080   36.7472 C   0  0  0  0  0  0  0  0  0  0  0  0
   39.2535  -20.7773   36.8597 C   0  0  0  0  0  0  0  0  0  0  0  0
   33.3922  -19.4812   36.1811 C   0  0  0  0  0  0  0  0  0  0  0  0
   33.2177  -20.9086   35.6806 C   0  0  0  0  0  0  0  0  0  0  0  0
   32.5207  -20.9819   34.3523 C   0  0  0  0  0  0  0  0  0  0  0  0
   31.1742  -20.2974   34.3756 C   0  0  0  0  0  0  0  0  0  0  0  0
   31.2180  -19.0282   35.1914 C   0  0  0  0  0  0  0  0  0  0  0  0
   32.6380  -18.5171   35.3174 C   0  0  0  0  0  0  0  0  0  0  0  0
   41.8956  -18.8005   35.8251 C   0  0  0  0  0  0  0  0  0  0  0  0
   41.0947  -19.2016   36.9157 O   0  0  0  0  0  0  0  0  0  0  0  0
   37.0706  -16.2458   36.2889 N   0  0  0  0  0  0  0  0  0  0  0  0
   38.0807  -16.0332   36.2819 H   0  0  0  0  0  0  0  0  0  0  0  0
   36.1837  -15.0994   36.2211 C   0  0  0  0  0  0  0  0  0  0  0  0
   34.7656  -15.4996   36.0046 C   0  0  0  0  0  0  0  0  0  0  0  0
   33.7269  -14.5068   36.3429 C   0  0  0  0  0  0  0  0  0  0  0  0
   34.0414  -13.5774   37.3689 N   0  0  0  0  0  0  0  0  0  0  0  0
   35.4022  -13.1185   37.3753 C   0  0  0  0  0  0  0  0  0  0  0  0
   36.2649  -14.3532   37.5303 C   0  0  0  0  0  0  0  0  0  0  0  0
   33.0776  -12.5614   37.5994 C   0  0  0  0  0  0  0  0  0  0  0  0
   33.6376  -11.1742   37.6629 C   0  0  0  0  0  0  0  0  0  0  0  0
   32.2469  -12.9276   38.8064 C   0  0  0  0  0  0  0  0  0  0  0  0
   40.1620  -21.7503   37.0279 O   0  0  0  0  0  0  0  0  0  0  0  0
   40.8757  -22.4467   36.0797 C   0  0  0  0  0  0  0  0  0  0  0  0
   40.0076  -23.4646   35.3878 C   0  0  0  0  0  0  0  0  0  0  0  0
   40.3335  -23.5669   34.0275 O   0  0  0  0  0  0  0  0  0  0  0  0
   41.6744  -23.6545   33.7715 C   0  0  0  0  0  0  0  0  0  0  0  0
   41.9623  -22.8047   32.5348 C   0  0  0  0  0  0  0  0  0  0  0  0
   42.7368  -23.5567   31.5653 N   0  0  0  0  0  0  0  0  0  0  0  0
   43.1787  -24.7985   32.1661 C   0  0  0  0  0  0  0  0  0  0  0  0
   41.9326  -23.8851   30.4031 C   0  0  0  0  0  0  0  0  0  0  0  0
 17 18  1  0  0  0
 18  1  1  0  0  0
  1  2  2  0  0  0
  2  3  1  0  0  0
  3  4  2  0  0  0
  4 19  1  0  0  0
 19 21  1  0  0  0
 21 22  1  0  0  0
 22 23  1  0  0  0
 23 24  1  0  0  0
 24 25  1  0  0  0
 25 26  1  0  0  0
 24 27  1  0  0  0
 27 28  1  0  0  0
 27 29  1  0  0  0
  4  5  1  0  0  0
  5  6  2  0  0  0
  6  7  1  0  0  0
  7  8  2  0  0  0
  8  9  1  0  0  0
  9 10  2  0  0  0
 10 30  1  0  0  0
 30 31  1  0  0  0
 31 32  1  0  0  0
 32 33  1  0  0  0
 33 34  1  0  0  0
 34 35  1  0  0  0
 35 36  1  0  0  0
 36 37  1  0  0  0
 36 38  1  0  0  0
  6 11  1  0  0  0
 11 12  1  0  0  0
 12 13  1  0  0  0
 13 14  1  0  0  0
 14 15  1  0  0  0
 15 16  1  0  0  0
 10  1  1  0  0  0
 16 11  1  0  0  0
  8  3  1  0  0  0
 26 21  1  0  0  0
 19 20  1  0  0  0
M  END
> <minimizedAffinity>
-6.59611

> <CNNscore>
0.3045920730

> <CNNaffinity>
6.3348646164

> <CNN_VS>
1.9295495749

> <CNNaffinity_variance>
0.0951404199

$$$$
[H]c1c(OC([H])([H])C([H])([H])OC([H])([H])C([H])([H])N(C([H])([H])[H])C([H])([H])[H])c(OC([H])([H])[H])c([H])c2c(N([H])C3([H])C([H])([H])C([H])([H])N(C([H])(C([H])([H])[H])C([H])([H])[H])C([H])([H])C3([H])[H])nc(C3([H])C([H])([H])C([H])([H])C([H])([H])C([H])([H])C3([H])[H])nc12


 38 41  0  0  0  0  0  0  0  0999 V2000
   37.3510  -19.1612   35.7620 C   0  0  0  0  0  0  0  0  0  0  0  0
   36.0975  -18.6318   35.5354 C   0  0  0  0  0  0  0  0  0  0  0  0
   35.6644  -17.4180   35.9778 C   0  0  0  0  0  0  0  0  0  0  0  0
   34.4094  -16.9441   35.7225 C   0  0  0  0  0  0  0  0  0  0  0  0
   34.1019  -15.7059   36.2276 N   0  0  0  0  0  0  0  0  0  0  0  0
   34.9649  -14.9746   36.9380 C   0  0  0  0  0  0  0  0  0  0  0  0
   36.1899  -15.4779   37.1662 N   0  0  0  0  0  0  0  0  0  0  0  0
   36.5945  -16.6805   36.7174 C   0  0  0  0  0  0  0  0  0  0  0  0
   37.8686  -17.1555   36.9801 C   0  0  0  0  0  0  0  0  0  0  0  0
   38.2460  -18.3751   36.5114 C   0  0  0  0  0  0  0  0  0  0  0  0
   34.6313  -13.6359   37.4957 C   0  0  0  0  0  0  0  0  0  0  0  0
   33.2229  -13.6292   38.0744 C   0  0  0  0  0  0  0  0  0  0  0  0
   32.3054  -12.6713   37.3701 C   0  0  0  0  0  0  0  0  0  0  0  0
   32.8460  -11.2606   37.3670 C   0  0  0  0  0  0  0  0  0  0  0  0
   34.3403  -11.2463   37.1541 C   0  0  0  0  0  0  0  0  0  0  0  0
   34.8038  -12.5307   36.4993 C   0  0  0  0  0  0  0  0  0  0  0  0
   38.3872  -20.5764   34.0608 C   0  0  0  0  0  0  0  0  0  0  0  0
   37.6998  -20.3900   35.2792 O   0  0  0  0  0  0  0  0  0  0  0  0
   33.4674  -17.6834   34.9911 N   0  0  0  0  0  0  0  0  0  0  0  0
   33.4422  -17.6194   33.9612 H   0  0  0  0  0  0  0  0  0  0  0  0
   32.4864  -18.5673   35.5928 C   0  0  0  0  0  0  0  0  0  0  0  0
   31.2840  -18.7399   34.7311 C   0  0  0  0  0  0  0  0  0  0  0  0
   30.4280  -19.9127   34.9974 C   0  0  0  0  0  0  0  0  0  0  0  0
   31.0646  -21.0571   35.5455 N   0  0  0  0  0  0  0  0  0  0  0  0
   32.0951  -20.7766   36.5054 C   0  0  0  0  0  0  0  0  0  0  0  0
   33.1202  -19.9228   35.7893 C   0  0  0  0  0  0  0  0  0  0  0  0
   30.2070  -22.1308   35.9007 C   0  0  0  0  0  0  0  0  0  0  0  0
   30.4890  -23.4160   35.1860 C   0  0  0  0  0  0  0  0  0  0  0  0
   28.7702  -21.6814   35.7802 C   0  0  0  0  0  0  0  0  0  0  0  0
   39.4618  -18.9042   36.7166 O   0  0  0  0  0  0  0  0  0  0  0  0
   40.6574  -18.5974   36.1083 C   0  0  0  0  0  0  0  0  0  0  0  0
   41.5441  -19.8112   36.0134 C   0  0  0  0  0  0  0  0  0  0  0  0
   41.3510  -20.6660   37.1085 O   0  0  0  0  0  0  0  0  0  0  0  0
   42.4966  -20.9923   37.7810 C   0  0  0  0  0  0  0  0  0  0  0  0
   42.2315  -20.7788   39.2704 C   0  0  0  0  0  0  0  0  0  0  0  0
   42.1241  -19.3641   39.5741 N   0  0  0  0  0  0  0  0  0  0  0  0
   41.9730  -19.1922   41.0045 C   0  0  0  0  0  0  0  0  0  0  0  0
   43.3212  -18.6543   39.1638 C   0  0  0  0  0  0  0  0  0  0  0  0
 17 18  1  0  0  0
 18  1  1  0  0  0
  1  2  2  0  0  0
  2  3  1  0  0  0
  3  4  2  0  0  0
  4 19  1  0  0  0
 19 21  1  0  0  0
 21 22  1  0  0  0
 22 23  1  0  0  0
 23 24  1  0  0  0
 24 25  1  0  0  0
 25 26  1  0  0  0
 24 27  1  0  0  0
 27 28  1  0  0  0
 27 29  1  0  0  0
  4  5  1  0  0  0
  5  6  2  0  0  0
  6  7  1  0  0  0
  7  8  2  0  0  0
  8  9  1  0  0  0
  9 10  2  0  0  0
 10 30  1  0  0  0
 30 31  1  0  0  0
 31 32  1  0  0  0
 32 33  1  0  0  0
 33 34  1  0  0  0
 34 35  1  0  0  0
 35 36  1  0  0  0
 36 37  1  0  0  0
 36 38  1  0  0  0
  6 11  1  0  0  0
 11 12  1  0  0  0
 12 13  1  0  0  0
 13 14  1  0  0  0
 14 15  1  0  0  0
 15 16  1  0  0  0
 10  1  1  0  0  0
 16 11  1  0  0  0
  8  3  1  0  0  0
 26 21  1  0  0  0
 19 20  1  0  0  0
M  END
> <minimizedAffinity>
-6.13830

> <CNNscore>
0.1964659691

> <CNNaffinity>
6.0705518723

> <CNN_VS>
1.1926568747

> <CNNaffinity_variance>
0.1648202688

$$$$
[H]c1c(OC([H])([H])C([H])([H])OC([H])([H])C([H])([H])N(C([H])([H])[H])C([H])([H])[H])c(OC([H])([H])[H])c([H])c2c(N([H])C3([H])C([H])([H])C([H])([H])N(C([H])(C([H])([H])[H])C([H])([H])[H])C([H])([H])C3([H])[H])nc(C3([H])C([H])([H])C([H])([H])C([H])([H])C([H])([H])C3([H])[H])nc12


 38 41  0  0  0  0  0  0  0  0999 V2000
   36.6415  -20.6658   36.7714 C   0  0  0  0  0  0  0  0  0  0  0  0
   35.4847  -20.2033   36.1791 C   0  0  0  0  0  0  0  0  0  0  0  0
   35.1344  -18.8924   36.0548 C   0  0  0  0  0  0  0  0  0  0  0  0
   33.9736  -18.4921   35.4572 C   0  0  0  0  0  0  0  0  0  0  0  0
   33.7427  -17.1407   35.3991 N   0  0  0  0  0  0  0  0  0  0  0  0
   34.5915  -16.2352   35.8932 C   0  0  0  0  0  0  0  0  0  0  0  0
   35.7226  -16.6717   36.4729 N   0  0  0  0  0  0  0  0  0  0  0  0
   36.0467  -17.9733   36.5829 C   0  0  0  0  0  0  0  0  0  0  0  0
   37.2254  -18.3728   37.1904 C   0  0  0  0  0  0  0  0  0  0  0  0
   37.5231  -19.6965   37.2848 C   0  0  0  0  0  0  0  0  0  0  0  0
   34.3394  -14.7695   35.8408 C   0  0  0  0  0  0  0  0  0  0  0  0
   35.6517  -13.9982   35.8036 C   0  0  0  0  0  0  0  0  0  0  0  0
   35.8408  -13.1072   36.9977 C   0  0  0  0  0  0  0  0  0  0  0  0
   34.6989  -12.1332   37.1698 C   0  0  0  0  0  0  0  0  0  0  0  0
   33.3730  -12.7807   36.8519 C   0  0  0  0  0  0  0  0  0  0  0  0
   33.4693  -14.2881   36.9612 C   0  0  0  0  0  0  0  0  0  0  0  0
   36.2515  -22.8724   37.7459 C   0  0  0  0  0  0  0  0  0  0  0  0
   36.9116  -22.0020   36.8524 O   0  0  0  0  0  0  0  0  0  0  0  0
   33.0484  -19.4089   34.9355 N   0  0  0  0  0  0  0  0  0  0  0  0
   33.1542  -19.7630   33.9717 H   0  0  0  0  0  0  0  0  0  0  0  0
   31.9088  -19.9200   35.6742 C   0  0  0  0  0  0  0  0  0  0  0  0
   30.6153  -19.4478   35.1069 C   0  0  0  0  0  0  0  0  0  0  0  0
   29.4039  -20.2104   35.4674 C   0  0  0  0  0  0  0  0  0  0  0  0
   29.5790  -21.5899   35.7536 N   0  0  0  0  0  0  0  0  0  0  0  0
   30.7834  -21.9136   36.4654 C   0  0  0  0  0  0  0  0  0  0  0  0
   31.9290  -21.4273   35.6029 C   0  0  0  0  0  0  0  0  0  0  0  0
   28.4243  -22.2781   36.2089 C   0  0  0  0  0  0  0  0  0  0  0  0
   27.8711  -21.7762   37.5066 C   0  0  0  0  0  0  0  0  0  0  0  0
   28.6975  -23.7635   36.2090 C   0  0  0  0  0  0  0  0  0  0  0  0
   38.6451  -20.1652   37.8521 O   0  0  0  0  0  0  0  0  0  0  0  0
   39.9560  -19.9505   37.4929 C   0  0  0  0  0  0  0  0  0  0  0  0
   40.7674  -21.2125   37.6251 C   0  0  0  0  0  0  0  0  0  0  0  0
   41.7877  -21.2613   36.6639 O   0  0  0  0  0  0  0  0  0  0  0  0
   41.6316  -20.3825   35.6274 C   0  0  0  0  0  0  0  0  0  0  0  0
   43.0129  -19.8266   35.2846 C   0  0  0  0  0  0  0  0  0  0  0  0
   42.9316  -18.4137   34.9645 N   0  0  0  0  0  0  0  0  0  0  0  0
   42.5734  -17.6732   36.1568 C   0  0  0  0  0  0  0  0  0  0  0  0
   44.2114  -17.9144   34.4974 C   0  0  0  0  0  0  0  0  0  0  0  0
 17 18  1  0  0  0
 18  1  1  0  0  0
  1  2  2  0  0  0
  2  3  1  0  0  0
  3  4  2  0  0  0
  4 19  1  0  0  0
 19 21  1  0  0  0
 21 22  1  0  0  0
 22 23  1  0  0  0
 23 24  1  0  0  0
 24 25  1  0  0  0
 25 26  1  0  0  0
 24 27  1  0  0  0
 27 28  1  0  0  0
 27 29  1  0  0  0
  4  5  1  0  0  0
  5  6  2  0  0  0
  6  7  1  0  0  0
  7  8  2  0  0  0
  8  9  1  0  0  0
  9 10  2  0  0  0
 10 30  1  0  0  0
 30 31  1  0  0  0
 31 32  1  0  0  0
 32 33  1  0  0  0
 33 34  1  0  0  0
 34 35  1  0  0  0
 35 36  1  0  0  0
 36 37  1  0  0  0
 36 38  1  0  0  0
  6 11  1  0  0  0
 11 12  1  0  0  0
 12 13  1  0  0  0
 13 14  1  0  0  0
 14 15  1  0  0  0
 15 16  1  0  0  0
 10  1  1  0  0  0
 16 11  1  0  0  0
  8  3  1  0  0  0
 26 21  1  0  0  0
 19 20  1  0  0  0
M  END
> <minimizedAffinity>
-5.92132

> <CNNscore>
0.1895248443

> <CNNaffinity>
5.8991518021

> <CNN_VS>
1.1180357933

> <CNNaffinity_variance>
0.2594149709

$$$$
[H]c1c2c(c([H])c(OC([H])([H])[H])c1OC([H])([H])C1([H])C([H])([H])N(C([H])([H])[H])C([H])([H])C1([H])[H])C1(C(N([H])[H])=N2)C([H])([H])C([H])([H])C1([H])[H]


 25 28  0  0  0  0  0  0  0  0999 V2000
   31.8792  -22.9076   35.5871 C   0  0  0  0  0  0  0  0  0  0  0  0
   32.8977  -22.0273   35.4075 C   0  0  0  0  0  0  0  0  0  0  0  0
   32.6593  -20.6716   35.4587 C   0  0  0  0  0  0  0  0  0  0  0  0
   31.3805  -20.2316   35.6929 C   0  0  0  0  0  0  0  0  0  0  0  0
   30.3439  -21.1144   35.8755 C   0  0  0  0  0  0  0  0  0  0  0  0
   30.5383  -22.5077   35.8325 C   0  0  0  0  0  0  0  0  0  0  0  0
   31.4024  -18.7800   35.6986 N   0  0  0  0  0  0  0  0  0  0  0  0
   32.5904  -18.3610   35.4865 C   0  0  0  0  0  0  0  0  0  0  0  0
   32.9701  -16.9976   35.4269 N   0  0  0  0  0  0  0  0  0  0  0  0
   33.4894  -19.4874   35.3159 C   0  0  0  0  0  0  0  0  0  0  0  0
   34.2821  -19.3627   34.0394 C   0  0  0  0  0  0  0  0  0  0  0  0
   35.4216  -18.8031   34.8616 C   0  0  0  0  0  0  0  0  0  0  0  0
   34.7858  -19.4599   36.0699 C   0  0  0  0  0  0  0  0  0  0  0  0
   33.2282  -16.4613   36.2832 H   0  0  0  0  0  0  0  0  0  0  0  0
   33.0006  -16.4866   34.4998 H   0  0  0  0  0  0  0  0  0  0  0  0
   32.6859  -24.9897   36.6048 C   0  0  0  0  0  0  0  0  0  0  0  0
   32.1064  -24.2632   35.5381 O   0  0  0  0  0  0  0  0  0  0  0  0
   29.5715  -23.3444   36.0040 O   0  0  0  0  0  0  0  0  0  0  0  0
   28.7159  -24.2344   36.2799 C   0  0  0  0  0  0  0  0  0  0  0  0
   27.8718  -23.9463   37.5419 C   0  0  0  0  0  0  0  0  0  0  0  0
   28.7134  -23.7857   38.7606 C   0  0  0  0  0  0  0  0  0  0  0  0
   28.1140  -22.6243   39.5044 C   0  0  0  0  0  0  0  0  0  0  0  0
   27.1196  -22.0181   38.6833 N   0  0  0  0  0  0  0  0  0  0  0  0
   27.3534  -20.5863   38.4683 C   0  0  0  0  0  0  0  0  0  0  0  0
   27.1009  -22.6475   37.3934 C   0  0  0  0  0  0  0  0  0  0  0  0
 16 17  1  0  0  0
 17  1  1  0  0  0
  1  2  2  0  0  0
  2  3  1  0  0  0
  3  4  2  0  0  0
  4  5  1  0  0  0
  5  6  2  0  0  0
  6 18  1  0  0  0
 18 19  1  0  0  0
 19 20  1  0  0  0
 20 21  1  0  0  0
 21 22  1  0  0  0
 22 23  1  0  0  0
 23 24  1  0  0  0
 23 25  1  0  0  0
  4  7  1  0  0  0
  7  8  2  0  0  0
  8  9  1  0  0  0
  8 10  1  0  0  0
 10 11  1  0  0  0
 11 12  1  0  0  0
 12 13  1  0  0  0
  6  1  1  0  0  0
 25 20  1  0  0  0
 13 10  1  0  0  0
 10  3  1  0  0  0
  9 14  1  0  0  0
  9 15  1  0  0  0
M  END
> <minimizedAffinity>
-4.53670

> <CNNscore>
0.5720022917

> <CNNaffinity>
4.4868330956

> <CNN_VS>
2.5664787292

> <CNNaffinity_variance>
0.3729249835

$$$$
[H]c1c2c(c([H])c(OC([H])([H])[H])c1OC([H])([H])C1([H])C([H])([H])N(C([H])([H])[H])C([H])([H])C1([H])[H])C1(C(N([H])[H])=N2)C([H])([H])C([H])([H])C1([H])[H]


 25 28  0  0  0  0  0  0  0  0999 V2000
   35.8965  -14.4628   36.9427 C   0  0  0  0  0  0  0  0  0  0  0  0
   36.5004  -15.5597   36.4167 C   0  0  0  0  0  0  0  0  0  0  0  0
   35.7520  -16.5240   35.7784 C   0  0  0  0  0  0  0  0  0  0  0  0
   34.3931  -16.3551   35.6856 C   0  0  0  0  0  0  0  0  0  0  0  0
   33.7733  -15.2491   36.2147 C   0  0  0  0  0  0  0  0  0  0  0  0
   34.4955  -14.2376   36.8752 C   0  0  0  0  0  0  0  0  0  0  0  0
   33.8491  -17.4981   34.9747 N   0  0  0  0  0  0  0  0  0  0  0  0
   34.7897  -18.3018   34.6568 C   0  0  0  0  0  0  0  0  0  0  0  0
   34.6125  -19.5193   33.9549 N   0  0  0  0  0  0  0  0  0  0  0  0
   36.0627  -17.7824   35.1213 C   0  0  0  0  0  0  0  0  0  0  0  0
   36.8048  -18.8103   35.9375 C   0  0  0  0  0  0  0  0  0  0  0  0
   37.5967  -19.1509   34.6947 C   0  0  0  0  0  0  0  0  0  0  0  0
   37.2090  -17.7897   34.1539 C   0  0  0  0  0  0  0  0  0  0  0  0
   34.6006  -19.5559   32.9128 H   0  0  0  0  0  0  0  0  0  0  0  0
   34.4864  -20.4305   34.4796 H   0  0  0  0  0  0  0  0  0  0  0  0
   38.0488  -13.4642   37.5688 C   0  0  0  0  0  0  0  0  0  0  0  0
   36.6345  -13.4941   37.5819 O   0  0  0  0  0  0  0  0  0  0  0  0
   33.9225  -13.1950   37.3742 O   0  0  0  0  0  0  0  0  0  0  0  0
   33.2240  -12.2485   37.8394 C   0  0  0  0  0  0  0  0  0  0  0  0
   31.6975  -12.4489   37.7046 C   0  0  0  0  0  0  0  0  0  0  0  0
   31.0645  -12.8532   38.9911 C   0  0  0  0  0  0  0  0  0  0  0  0
   29.7880  -12.0621   39.0691 C   0  0  0  0  0  0  0  0  0  0  0  0
   29.7718  -11.1124   38.0069 N   0  0  0  0  0  0  0  0  0  0  0  0
   29.5863   -9.7353   38.4765 C   0  0  0  0  0  0  0  0  0  0  0  0
   31.0158  -11.1573   37.2922 C   0  0  0  0  0  0  0  0  0  0  0  0
 16 17  1  0  0  0
 17  1  1  0  0  0
  1  2  2  0  0  0
  2  3  1  0  0  0
  3  4  2  0  0  0
  4  5  1  0  0  0
  5  6  2  0  0  0
  6 18  1  0  0  0
 18 19  1  0  0  0
 19 20  1  0  0  0
 20 21  1  0  0  0
 21 22  1  0  0  0
 22 23  1  0  0  0
 23 24  1  0  0  0
 23 25  1  0  0  0
  4  7  1  0  0  0
  7  8  2  0  0  0
  8  9  1  0  0  0
  8 10  1  0  0  0
 10 11  1  0  0  0
 11 12  1  0  0  0
 12 13  1  0  0  0
  6  1  1  0  0  0
 25 20  1  0  0  0
 13 10  1  0  0  0
 10  3  1  0  0  0
  9 14  1  0  0  0
  9 15  1  0  0  0
M  END
> <minimizedAffinity>
-7.65831

> <CNNscore>
0.5391281843

> <CNNaffinity>
5.7064166069

> <CNN_VS>
3.0764899254

> <CNNaffinity_variance>
0.2040761411

$$$$
[H]c1c2c(c([H])c(OC([H])([H])[H])c1OC([H])([H])C1([H])C([H])([H])N(C([H])([H])[H])C([H])([H])C1([H])[H])C1(C(N([H])[H])=N2)C([H])([H])C([H])([H])C1([H])[H]


 25 28  0  0  0  0  0  0  0  0999 V2000
   35.1880  -18.6853   36.1276 C   0  0  0  0  0  0  0  0  0  0  0  0
   35.8167  -17.5474   36.5207 C   0  0  0  0  0  0  0  0  0  0  0  0
   35.2015  -16.3252   36.3618 C   0  0  0  0  0  0  0  0  0  0  0  0
   33.9492  -16.2810   35.8020 C   0  0  0  0  0  0  0  0  0  0  0  0
   33.3055  -17.4265   35.4011 C   0  0  0  0  0  0  0  0  0  0  0  0
   33.8931  -18.6975   35.5433 C   0  0  0  0  0  0  0  0  0  0  0  0
   33.5327  -14.8912   35.7501 N   0  0  0  0  0  0  0  0  0  0  0  0
   34.4477  -14.1434   36.2354 C   0  0  0  0  0  0  0  0  0  0  0  0
   34.3712  -12.7328   36.3387 N   0  0  0  0  0  0  0  0  0  0  0  0
   35.5736  -14.9531   36.6630 C   0  0  0  0  0  0  0  0  0  0  0  0
   36.8633  -14.4515   36.0644 C   0  0  0  0  0  0  0  0  0  0  0  0
   37.1220  -13.7197   37.3625 C   0  0  0  0  0  0  0  0  0  0  0  0
   36.1497  -14.6777   38.0202 C   0  0  0  0  0  0  0  0  0  0  0  0
   33.9345  -12.2652   37.1622 H   0  0  0  0  0  0  0  0  0  0  0  0
   34.7607  -12.1143   35.5723 H   0  0  0  0  0  0  0  0  0  0  0  0
   36.9631  -20.1043   37.0534 C   0  0  0  0  0  0  0  0  0  0  0  0
   35.7932  -19.9107   36.2818 O   0  0  0  0  0  0  0  0  0  0  0  0
   33.2960  -19.7787   35.1710 O   0  0  0  0  0  0  0  0  0  0  0  0
   32.7341  -20.8910   34.9534 C   0  0  0  0  0  0  0  0  0  0  0  0
   31.5606  -21.2160   35.9051 C   0  0  0  0  0  0  0  0  0  0  0  0
   30.2799  -20.6036   35.4534 C   0  0  0  0  0  0  0  0  0  0  0  0
   29.2359  -21.6632   35.6740 C   0  0  0  0  0  0  0  0  0  0  0  0
   29.8857  -22.8785   36.0366 N   0  0  0  0  0  0  0  0  0  0  0  0
   29.5313  -23.9983   35.1583 C   0  0  0  0  0  0  0  0  0  0  0  0
   31.3095  -22.7115   35.9647 C   0  0  0  0  0  0  0  0  0  0  0  0
 16 17  1  0  0  0
 17  1  1  0  0  0
  1  2  2  0  0  0
  2  3  1  0  0  0
  3  4  2  0  0  0
  4  5  1  0  0  0
  5  6  2  0  0  0
  6 18  1  0  0  0
 18 19  1  0  0  0
 19 20  1  0  0  0
 20 21  1  0  0  0
 21 22  1  0  0  0
 22 23  1  0  0  0
 23 24  1  0  0  0
 23 25  1  0  0  0
  4  7  1  0  0  0
  7  8  2  0  0  0
  8  9  1  0  0  0
  8 10  1  0  0  0
 10 11  1  0  0  0
 11 12  1  0  0  0
 12 13  1  0  0  0
  6  1  1  0  0  0
 25 20  1  0  0  0
 13 10  1  0  0  0
 10  3  1  0  0  0
  9 14  1  0  0  0
  9 15  1  0  0  0
M  END
> <minimizedAffinity>
-6.02763

> <CNNscore>
0.4980332553

> <CNNaffinity>
4.9267892838

> <CNN_VS>
2.4537048340

> <CNNaffinity_variance>
0.3264240026

$$$$
[H]c1c2c(c([H])c(OC([H])([H])[H])c1OC([H])([H])C1([H])C([H])([H])N(C([H])([H])[H])C([H])([H])C1([H])[H])C1(C(N([H])[H])=N2)C([H])([H])C([H])([H])C1([H])[H]


 25 28  0  0  0  0  0  0  0  0999 V2000
   36.3756  -14.8654   37.4626 C   0  0  0  0  0  0  0  0  0  0  0  0
   36.6409  -16.1951   37.5402 C   0  0  0  0  0  0  0  0  0  0  0  0
   35.8456  -17.1007   36.8733 C   0  0  0  0  0  0  0  0  0  0  0  0
   34.7869  -16.6353   36.1341 C   0  0  0  0  0  0  0  0  0  0  0  0
   34.5107  -15.2923   36.0499 C   0  0  0  0  0  0  0  0  0  0  0  0
   35.2945  -14.3294   36.7129 C   0  0  0  0  0  0  0  0  0  0  0  0
   34.1206  -17.7800   35.5396 N   0  0  0  0  0  0  0  0  0  0  0  0
   34.7158  -18.8572   35.8819 C   0  0  0  0  0  0  0  0  0  0  0  0
   34.3294  -20.1593   35.4797 N   0  0  0  0  0  0  0  0  0  0  0  0
   35.8431  -18.5480   36.7419 C   0  0  0  0  0  0  0  0  0  0  0  0
   35.7881  -19.3465   38.0197 C   0  0  0  0  0  0  0  0  0  0  0  0
   36.7592  -20.3216   37.3924 C   0  0  0  0  0  0  0  0  0  0  0  0
   37.1518  -19.2141   36.4358 C   0  0  0  0  0  0  0  0  0  0  0  0
   34.6661  -20.5812   34.5875 H   0  0  0  0  0  0  0  0  0  0  0  0
   33.6819  -20.7400   36.0838 H   0  0  0  0  0  0  0  0  0  0  0  0
   38.2918  -13.3343   37.5365 C   0  0  0  0  0  0  0  0  0  0  0  0
   37.1635  -13.9528   38.1245 O   0  0  0  0  0  0  0  0  0  0  0  0
   35.0436  -13.0662   36.6388 O   0  0  0  0  0  0  0  0  0  0  0  0
   34.8438  -11.8373   36.4151 C   0  0  0  0  0  0  0  0  0  0  0  0
   34.0316  -11.1079   37.5092 C   0  0  0  0  0  0  0  0  0  0  0  0
   33.8139   -9.6697   37.1875 C   0  0  0  0  0  0  0  0  0  0  0  0
   32.3861   -9.3915   37.5686 C   0  0  0  0  0  0  0  0  0  0  0  0
   31.7512  -10.6238   37.8984 N   0  0  0  0  0  0  0  0  0  0  0  0
   30.5387  -10.8690   37.1105 C   0  0  0  0  0  0  0  0  0  0  0  0
   32.6491  -11.7168   37.6542 C   0  0  0  0  0  0  0  0  0  0  0  0
 16 17  1  0  0  0
 17  1  1  0  0  0
  1  2  2  0  0  0
  2  3  1  0  0  0
  3  4  2  0  0  0
  4  5  1  0  0  0
  5  6  2  0  0  0
  6 18  1  0  0  0
 18 19  1  0  0  0
 19 20  1  0  0  0
 20 21  1  0  0  0
 21 22  1  0  0  0
 22 23  1  0  0  0
 23 24  1  0  0  0
 23 25  1  0  0  0
  4  7  1  0  0  0
  7  8  2  0  0  0
  8  9  1  0  0  0
  8 10  1  0  0  0
 10 11  1  0  0  0
 11 12  1  0  0  0
 12 13  1  0  0  0
  6  1  1  0  0  0
 25 20  1  0  0  0
 13 10  1  0  0  0
 10  3  1  0  0  0
  9 14  1  0  0  0
  9 15  1  0  0  0
M  END
> <minimizedAffinity>
-7.19962

> <CNNscore>
0.4488487244

> <CNNaffinity>
5.6915540695

> <CNN_VS>
2.5546467304

> <CNNaffinity_variance>
0.1205989569

$$$$
[H]c1c2c(c([H])c(OC([H])([H])[H])c1OC([H])([H])C1([H])C([H])([H])N(C([H])([H])[H])C([H])([H])C1([H])[H])C1(C(N([H])[H])=N2)C([H])([H])C([H])([H])C1([H])[H]


 25 28  0  0  0  0  0  0  0  0999 V2000
   33.0615  -11.2042   37.5589 C   0  0  0  0  0  0  0  0  0  0  0  0
   34.3200  -11.7144   37.5417 C   0  0  0  0  0  0  0  0  0  0  0  0
   34.5469  -12.9835   37.0565 C   0  0  0  0  0  0  0  0  0  0  0  0
   33.4828  -13.7168   36.5944 C   0  0  0  0  0  0  0  0  0  0  0  0
   32.2063  -13.2093   36.6080 C   0  0  0  0  0  0  0  0  0  0  0  0
   31.9251  -11.9184   37.0934 C   0  0  0  0  0  0  0  0  0  0  0  0
   33.9882  -15.0011   36.1441 N   0  0  0  0  0  0  0  0  0  0  0  0
   35.2532  -15.0556   36.3136 C   0  0  0  0  0  0  0  0  0  0  0  0
   36.0681  -16.1657   35.9817 N   0  0  0  0  0  0  0  0  0  0  0  0
   35.7285  -13.8140   36.8955 C   0  0  0  0  0  0  0  0  0  0  0  0
   36.5515  -14.0724   38.1321 C   0  0  0  0  0  0  0  0  0  0  0  0
   37.7898  -13.9398   37.2739 C   0  0  0  0  0  0  0  0  0  0  0  0
   36.9387  -13.1779   36.2785 C   0  0  0  0  0  0  0  0  0  0  0  0
   36.4672  -16.2880   35.0261 H   0  0  0  0  0  0  0  0  0  0  0  0
   36.2926  -16.9051   36.7058 H   0  0  0  0  0  0  0  0  0  0  0  0
   32.7856   -8.7902   37.2151 C   0  0  0  0  0  0  0  0  0  0  0  0
   32.8240   -9.9381   38.0410 O   0  0  0  0  0  0  0  0  0  0  0  0
   30.7301  -11.4329   37.1091 O   0  0  0  0  0  0  0  0  0  0  0  0
   29.6104  -10.8580   37.2365 C   0  0  0  0  0  0  0  0  0  0  0  0
   28.9351  -11.0623   38.6115 C   0  0  0  0  0  0  0  0  0  0  0  0
   27.4592  -11.2296   38.4973 C   0  0  0  0  0  0  0  0  0  0  0  0
   27.1115  -12.3342   39.4566 C   0  0  0  0  0  0  0  0  0  0  0  0
   28.3181  -12.9121   39.9471 N   0  0  0  0  0  0  0  0  0  0  0  0
   28.3877  -14.3602   39.7254 C   0  0  0  0  0  0  0  0  0  0  0  0
   29.4468  -12.3225   39.2846 C   0  0  0  0  0  0  0  0  0  0  0  0
 16 17  1  0  0  0
 17  1  1  0  0  0
  1  2  2  0  0  0
  2  3  1  0  0  0
  3  4  2  0  0  0
  4  5  1  0  0  0
  5  6  2  0  0  0
  6 18  1  0  0  0
 18 19  1  0  0  0
 19 20  1  0  0  0
 20 21  1  0  0  0
 21 22  1  0  0  0
 22 23  1  0  0  0
 23 24  1  0  0  0
 23 25  1  0  0  0
  4  7  1  0  0  0
  7  8  2  0  0  0
  8  9  1  0  0  0
  8 10  1  0  0  0
 10 11  1  0  0  0
 11 12  1  0  0  0
 12 13  1  0  0  0
  6  1  1  0  0  0
 25 20  1  0  0  0
 13 10  1  0  0  0
 10  3  1  0  0  0
  9 14  1  0  0  0
  9 15  1  0  0  0
M  END
> <minimizedAffinity>
-6.78756

> <CNNscore>
0.4418428540

> <CNNaffinity>
5.8191957474

> <CNN_VS>
2.5711700916

> <CNNaffinity_variance>
0.2009037286

$$$$
[H]c1c2c(c([H])c(OC([H])([H])[H])c1OC([H])([H])C1([H])C([H])([H])N(C([H])([H])[H])C([H])([H])C1([H])[H])C1(C(N([H])[H])=N2)C([H])([H])C([H])([H])C1([H])[H]


 25 28  0  0  0  0  0  0  0  0999 V2000
   35.7614  -18.0863   35.0532 C   0  0  0  0  0  0  0  0  0  0  0  0
   36.3410  -17.0361   35.6902 C   0  0  0  0  0  0  0  0  0  0  0  0
   35.5716  -15.9811   36.1288 C   0  0  0  0  0  0  0  0  0  0  0  0
   34.2169  -16.0124   35.9103 C   0  0  0  0  0  0  0  0  0  0  0  0
   33.6219  -17.0701   35.2668 C   0  0  0  0  0  0  0  0  0  0  0  0
   34.3659  -18.1704   34.8011 C   0  0  0  0  0  0  0  0  0  0  0  0
   33.6477  -14.7971   36.4641 N   0  0  0  0  0  0  0  0  0  0  0  0
   34.5701  -14.0788   36.9791 C   0  0  0  0  0  0  0  0  0  0  0  0
   34.3658  -12.8257   37.6072 N   0  0  0  0  0  0  0  0  0  0  0  0
   35.8543  -14.7368   36.8243 C   0  0  0  0  0  0  0  0  0  0  0  0
   36.8643  -13.8162   36.1872 C   0  0  0  0  0  0  0  0  0  0  0  0
   37.3854  -13.5113   37.5739 C   0  0  0  0  0  0  0  0  0  0  0  0
   36.7464  -14.8079   38.0280 C   0  0  0  0  0  0  0  0  0  0  0  0
   34.1223  -12.7513   38.6184 H   0  0  0  0  0  0  0  0  0  0  0  0
   34.4569  -11.9257   37.0566 H   0  0  0  0  0  0  0  0  0  0  0  0
   37.9296  -19.0922   34.4973 C   0  0  0  0  0  0  0  0  0  0  0  0
   36.5204  -19.1448   34.6114 O   0  0  0  0  0  0  0  0  0  0  0  0
   33.8158  -19.1687   34.1969 O   0  0  0  0  0  0  0  0  0  0  0  0
   33.1794  -20.1568   33.7290 C   0  0  0  0  0  0  0  0  0  0  0  0
   32.0676  -20.7022   34.6535 C   0  0  0  0  0  0  0  0  0  0  0  0
   31.9488  -22.1854   34.5809 C   0  0  0  0  0  0  0  0  0  0  0  0
   31.7510  -22.6359   36.0019 C   0  0  0  0  0  0  0  0  0  0  0  0
   31.9436  -21.5205   36.8674 N   0  0  0  0  0  0  0  0  0  0  0  0
   32.9649  -21.7635   37.8916 C   0  0  0  0  0  0  0  0  0  0  0  0
   32.3635  -20.3782   36.1063 C   0  0  0  0  0  0  0  0  0  0  0  0
 16 17  1  0  0  0
 17  1  1  0  0  0
  1  2  2  0  0  0
  2  3  1  0  0  0
  3  4  2  0  0  0
  4  5  1  0  0  0
  5  6  2  0  0  0
  6 18  1  0  0  0
 18 19  1  0  0  0
 19 20  1  0  0  0
 20 21  1  0  0  0
 21 22  1  0  0  0
 22 23  1  0  0  0
 23 24  1  0  0  0
 23 25  1  0  0  0
  4  7  1  0  0  0
  7  8  2  0  0  0
  8  9  1  0  0  0
  8 10  1  0  0  0
 10 11  1  0  0  0
 11 12  1  0  0  0
 12 13  1  0  0  0
  6  1  1  0  0  0
 25 20  1  0  0  0
 13 10  1  0  0  0
 10  3  1  0  0  0
  9 14  1  0  0  0
  9 15  1  0  0  0
M  END
> <minimizedAffinity>
-6.91910

> <CNNscore>
0.4370194972

> <CNNaffinity>
5.0308661461

> <CNN_VS>
2.1985867023

> <CNNaffinity_variance>
0.2220751792

$$$$
[H]c1c2c(c([H])c(OC([H])([H])[H])c1OC([H])([H])C1([H])C([H])([H])N(C([H])([H])[H])C([H])([H])C1([H])[H])C1(C(N([H])[H])=N2)C([H])([H])C([H])([H])C1([H])[H]


 25 28  0  0  0  0  0  0  0  0999 V2000
   37.2514  -18.5621   36.9863 C   0  0  0  0  0  0  0  0  0  0  0  0
   37.0956  -17.2129   36.9757 C   0  0  0  0  0  0  0  0  0  0  0  0
   35.8906  -16.6572   36.6060 C   0  0  0  0  0  0  0  0  0  0  0  0
   34.8580  -17.4886   36.2510 C   0  0  0  0  0  0  0  0  0  0  0  0
   35.0061  -18.8543   36.2585 C   0  0  0  0  0  0  0  0  0  0  0  0
   36.2173  -19.4683   36.6288 C   0  0  0  0  0  0  0  0  0  0  0  0
   33.7154  -16.6603   35.9106 N   0  0  0  0  0  0  0  0  0  0  0  0
   34.0165  -15.4260   36.0438 C   0  0  0  0  0  0  0  0  0  0  0  0
   33.1351  -14.3455   35.7943 N   0  0  0  0  0  0  0  0  0  0  0  0
   35.3923  -15.2973   36.4870 C   0  0  0  0  0  0  0  0  0  0  0  0
   36.1679  -14.3651   35.5908 C   0  0  0  0  0  0  0  0  0  0  0  0
   35.9234  -13.2694   36.6043 C   0  0  0  0  0  0  0  0  0  0  0  0
   35.6693  -14.3601   37.6249 C   0  0  0  0  0  0  0  0  0  0  0  0
   32.4883  -13.9836   36.5280 H   0  0  0  0  0  0  0  0  0  0  0  0
   33.1133  -13.8757   34.8455 H   0  0  0  0  0  0  0  0  0  0  0  0
   39.6192  -19.0459   36.5613 C   0  0  0  0  0  0  0  0  0  0  0  0
   38.4502  -19.1273   37.3538 O   0  0  0  0  0  0  0  0  0  0  0  0
   36.3656  -20.7497   36.6401 O   0  0  0  0  0  0  0  0  0  0  0  0
   36.3714  -22.0118   36.7255 C   0  0  0  0  0  0  0  0  0  0  0  0
   36.3544  -22.5590   38.1708 C   0  0  0  0  0  0  0  0  0  0  0  0
   37.4912  -22.0436   38.9839 C   0  0  0  0  0  0  0  0  0  0  0  0
   36.9012  -21.7233   40.3295 C   0  0  0  0  0  0  0  0  0  0  0  0
   35.4840  -21.8482   40.2500 N   0  0  0  0  0  0  0  0  0  0  0  0
   34.7804  -20.6298   40.6642 C   0  0  0  0  0  0  0  0  0  0  0  0
   35.0933  -22.1298   38.8978 C   0  0  0  0  0  0  0  0  0  0  0  0
 16 17  1  0  0  0
 17  1  1  0  0  0
  1  2  2  0  0  0
  2  3  1  0  0  0
  3  4  2  0  0  0
  4  5  1  0  0  0
  5  6  2  0  0  0
  6 18  1  0  0  0
 18 19  1  0  0  0
 19 20  1  0  0  0
 20 21  1  0  0  0
 21 22  1  0  0  0
 22 23  1  0  0  0
 23 24  1  0  0  0
 23 25  1  0  0  0
  4  7  1  0  0  0
  7  8  2  0  0  0
  8  9  1  0  0  0
  8 10  1  0  0  0
 10 11  1  0  0  0
 11 12  1  0  0  0
 12 13  1  0  0  0
  6  1  1  0  0  0
 25 20  1  0  0  0
 13 10  1  0  0  0
 10  3  1  0  0  0
  9 14  1  0  0  0
  9 15  1  0  0  0
M  END
> <minimizedAffinity>
-5.01829

> <CNNscore>
0.4167994559

> <CNNaffinity>
4.7955832481

> <CNN_VS>
1.9987964630

> <CNNaffinity_variance>
0.1953218132

$$$$
[H]c1c2c(c([H])c(OC([H])([H])[H])c1OC([H])([H])C1([H])C([H])([H])N(C([H])([H])[H])C([H])([H])C1([H])[H])C1(C(N([H])[H])=N2)C([H])([H])C([H])([H])C1([H])[H]


 25 28  0  0  0  0  0  0  0  0999 V2000
   36.1129  -19.2645   36.0089 C   0  0  0  0  0  0  0  0  0  0  0  0
   37.4385  -19.5286   36.1421 C   0  0  0  0  0  0  0  0  0  0  0  0
   38.3235  -19.1477   35.1577 C   0  0  0  0  0  0  0  0  0  0  0  0
   37.8420  -18.5005   34.0472 C   0  0  0  0  0  0  0  0  0  0  0  0
   36.5030  -18.2293   33.9036 C   0  0  0  0  0  0  0  0  0  0  0  0
   35.5610  -18.5983   34.8820 C   0  0  0  0  0  0  0  0  0  0  0  0
   38.9671  -18.2124   33.1761 N   0  0  0  0  0  0  0  0  0  0  0  0
   40.0480  -18.6438   33.7028 C   0  0  0  0  0  0  0  0  0  0  0  0
   41.3345  -18.5296   33.1211 N   0  0  0  0  0  0  0  0  0  0  0  0
   39.7611  -19.2668   34.9817 C   0  0  0  0  0  0  0  0  0  0  0  0
   40.3419  -20.6564   35.0528 C   0  0  0  0  0  0  0  0  0  0  0  0
   41.5192  -20.0711   35.8003 C   0  0  0  0  0  0  0  0  0  0  0  0
   40.6308  -18.8932   36.1453 C   0  0  0  0  0  0  0  0  0  0  0  0
   41.9275  -17.6833   33.2612 H   0  0  0  0  0  0  0  0  0  0  0  0
   41.7272  -19.3108   32.5237 H   0  0  0  0  0  0  0  0  0  0  0  0
   35.4945  -19.5261   38.3691 C   0  0  0  0  0  0  0  0  0  0  0  0
   35.2208  -19.6403   36.9858 O   0  0  0  0  0  0  0  0  0  0  0  0
   34.3019  -18.3468   34.7565 O   0  0  0  0  0  0  0  0  0  0  0  0
   33.1100  -17.9899   34.5284 C   0  0  0  0  0  0  0  0  0  0  0  0
   32.1514  -19.1454   34.1615 C   0  0  0  0  0  0  0  0  0  0  0  0
   32.8818  -20.3815   33.7644 C   0  0  0  0  0  0  0  0  0  0  0  0
   32.1345  -21.5098   34.4200 C   0  0  0  0  0  0  0  0  0  0  0  0
   31.1593  -20.9618   35.3028 N   0  0  0  0  0  0  0  0  0  0  0  0
   31.2909  -21.4586   36.6765 C   0  0  0  0  0  0  0  0  0  0  0  0
   31.2905  -19.5331   35.3495 C   0  0  0  0  0  0  0  0  0  0  0  0
 16 17  1  0  0  0
 17  1  1  0  0  0
  1  2  2  0  0  0
  2  3  1  0  0  0
  3  4  2  0  0  0
  4  5  1  0  0  0
  5  6  2  0  0  0
  6 18  1  0  0  0
 18 19  1  0  0  0
 19 20  1  0  0  0
 20 21  1  0  0  0
 21 22  1  0  0  0
 22 23  1  0  0  0
 23 24  1  0  0  0
 23 25  1  0  0  0
  4  7  1  0  0  0
  7  8  2  0  0  0
  8  9  1  0  0  0
  8 10  1  0  0  0
 10 11  1  0  0  0
 11 12  1  0  0  0
 12 13  1  0  0  0
  6  1  1  0  0  0
 25 20  1  0  0  0
 13 10  1  0  0  0
 10  3  1  0  0  0
  9 14  1  0  0  0
  9 15  1  0  0  0
M  END
> <minimizedAffinity>
-5.90630

> <CNNscore>
0.3840547502

> <CNNaffinity>
4.7640581131

> <CNN_VS>
1.8296591043

> <CNNaffinity_variance>
0.4568411410

$$$$
[H]c1c2c(c([H])c(OC([H])([H])[H])c1OC([H])([H])C1([H])C([H])([H])N(C([H])([H])[H])C([H])([H])C1([H])[H])C1(C(N([H])[H])=N2)C([H])([H])C([H])([H])C1([H])[H]


 25 28  0  0  0  0  0  0  0  0999 V2000
   37.9870  -18.9774   36.8259 C   0  0  0  0  0  0  0  0  0  0  0  0
   37.6756  -17.6576   36.9025 C   0  0  0  0  0  0  0  0  0  0  0  0
   36.4154  -17.2217   36.5570 C   0  0  0  0  0  0  0  0  0  0  0  0
   35.4875  -18.1415   36.1367 C   0  0  0  0  0  0  0  0  0  0  0  0
   35.7934  -19.4783   36.0558 C   0  0  0  0  0  0  0  0  0  0  0  0
   37.0665  -19.9713   36.3982 C   0  0  0  0  0  0  0  0  0  0  0  0
   34.2575  -17.4301   35.8390 N   0  0  0  0  0  0  0  0  0  0  0  0
   34.4127  -16.1809   36.0565 C   0  0  0  0  0  0  0  0  0  0  0  0
   33.4126  -15.1955   35.8692 N   0  0  0  0  0  0  0  0  0  0  0  0
   35.7629  -15.9237   36.5223 C   0  0  0  0  0  0  0  0  0  0  0  0
   36.4278  -14.8503   35.6982 C   0  0  0  0  0  0  0  0  0  0  0  0
   36.0543  -13.8603   36.7789 C   0  0  0  0  0  0  0  0  0  0  0  0
   35.9253  -15.0387   37.7225 C   0  0  0  0  0  0  0  0  0  0  0  0
   32.7257  -14.9606   36.6179 H   0  0  0  0  0  0  0  0  0  0  0  0
   33.3395  -14.6691   34.9531 H   0  0  0  0  0  0  0  0  0  0  0  0
   40.4313  -18.7663   36.7738 C   0  0  0  0  0  0  0  0  0  0  0  0
   39.2422  -19.4233   37.1685 O   0  0  0  0  0  0  0  0  0  0  0  0
   37.3626  -21.2248   36.3266 O   0  0  0  0  0  0  0  0  0  0  0  0
   37.5475  -22.4754   36.3724 C   0  0  0  0  0  0  0  0  0  0  0  0
   36.7700  -23.2001   37.4943 C   0  0  0  0  0  0  0  0  0  0  0  0
   35.5002  -22.5037   37.8431 C   0  0  0  0  0  0  0  0  0  0  0  0
   34.4843  -23.5985   38.0179 C   0  0  0  0  0  0  0  0  0  0  0  0
   35.0640  -24.8323   37.6028 N   0  0  0  0  0  0  0  0  0  0  0  0
   34.2773  -25.5121   36.5684 C   0  0  0  0  0  0  0  0  0  0  0  0
   36.3729  -24.5995   37.0616 C   0  0  0  0  0  0  0  0  0  0  0  0
 16 17  1  0  0  0
 17  1  1  0  0  0
  1  2  2  0  0  0
  2  3  1  0  0  0
  3  4  2  0  0  0
  4  5  1  0  0  0
  5  6  2  0  0  0
  6 18  1  0  0  0
 18 19  1  0  0  0
 19 20  1  0  0  0
 20 21  1  0  0  0
 21 22  1  0  0  0
 22 23  1  0  0  0
 23 24  1  0  0  0
 23 25  1  0  0  0
  4  7  1  0  0  0
  7  8  2  0  0  0
  8  9  1  0  0  0
  8 10  1  0  0  0
 10 11  1  0  0  0
 11 12  1  0  0  0
 12 13  1  0  0  0
  6  1  1  0  0  0
 25 20  1  0  0  0
 13 10  1  0  0  0
 10  3  1  0  0  0
  9 14  1  0  0  0
  9 15  1  0  0  0
M  END
> <minimizedAffinity>
-4.66037

> <CNNscore>
0.3560627103

> <CNNaffinity>
4.4920554161

> <CNN_VS>
1.5994534492

> <CNNaffinity_variance>
0.2575672269

$$$$
[H]c1c(-c2nc3c([H])c(OC([H])([H])C([H])([H])C([H])([H])N4C([H])([H])C([H])([H])C([H])([H])C4([H])[H])c(OC([H])([H])[H])c([H])c3c(N([H])C([H])([H])C3([H])C([H])([H])C([H])([H])N(C([H])([H])[H])C([H])([H])C3([H])[H])c2[H])oc(C([H])([H])C([H])([H])[H])c1[H]


 38 42  0  0  0  0  0  0  0  0999 V2000
   33.7835  -17.9022   35.3519 C   0  0  0  0  0  0  0  0  0  0  0  0
   35.1044  -18.2148   35.1424 C   0  0  0  0  0  0  0  0  0  0  0  0
   36.0750  -17.2462   35.4493 C   0  0  0  0  0  0  0  0  0  0  0  0
   35.7102  -16.0141   35.9478 C   0  0  0  0  0  0  0  0  0  0  0  0
   36.6157  -15.0361   36.2630 C   0  0  0  0  0  0  0  0  0  0  0  0
   36.1793  -13.8305   36.7567 C   0  0  0  0  0  0  0  0  0  0  0  0
   34.8419  -13.5525   36.9542 C   0  0  0  0  0  0  0  0  0  0  0  0
   33.9197  -14.5198   36.6441 C   0  0  0  0  0  0  0  0  0  0  0  0
   34.3510  -15.7446   36.1433 C   0  0  0  0  0  0  0  0  0  0  0  0
   33.4553  -16.6922   35.8394 N   0  0  0  0  0  0  0  0  0  0  0  0
   30.8782  -19.9974   35.0715 C   0  0  0  0  0  0  0  0  0  0  0  0
   31.6572  -20.5827   34.0998 C   0  0  0  0  0  0  0  0  0  0  0  0
   32.8326  -19.8631   34.0966 C   0  0  0  0  0  0  0  0  0  0  0  0
   32.7336  -18.8845   35.0451 C   0  0  0  0  0  0  0  0  0  0  0  0
   31.5551  -19.0039   35.5981 O   0  0  0  0  0  0  0  0  0  0  0  0
   29.5915  -21.4725   36.5305 C   0  0  0  0  0  0  0  0  0  0  0  0
   29.5125  -20.3945   35.4761 C   0  0  0  0  0  0  0  0  0  0  0  0
   37.4374  -17.5773   35.2287 N   0  0  0  0  0  0  0  0  0  0  0  0
   38.1499  -17.3331   35.9204 H   0  0  0  0  0  0  0  0  0  0  0  0
   37.8659  -18.2696   34.0211 C   0  0  0  0  0  0  0  0  0  0  0  0
   39.0535  -19.1238   34.3113 C   0  0  0  0  0  0  0  0  0  0  0  0
   40.3099  -18.7050   33.6307 C   0  0  0  0  0  0  0  0  0  0  0  0
   41.0540  -19.8230   32.9716 C   0  0  0  0  0  0  0  0  0  0  0  0
   41.1043  -21.0360   33.6990 N   0  0  0  0  0  0  0  0  0  0  0  0
   42.3068  -21.2377   34.4684 C   0  0  0  0  0  0  0  0  0  0  0  0
   39.9053  -21.3977   34.3905 C   0  0  0  0  0  0  0  0  0  0  0  0
   38.7200  -20.5573   33.9620 C   0  0  0  0  0  0  0  0  0  0  0  0
   37.1154  -12.8646   37.0650 O   0  0  0  0  0  0  0  0  0  0  0  0
   38.4199  -13.1737   37.4866 C   0  0  0  0  0  0  0  0  0  0  0  0
   34.4431  -12.3243   37.4543 O   0  0  0  0  0  0  0  0  0  0  0  0
   33.3092  -12.2628   38.2892 C   0  0  0  0  0  0  0  0  0  0  0  0
   32.2898  -11.2591   37.8003 C   0  0  0  0  0  0  0  0  0  0  0  0
   31.2174  -12.0459   37.0806 C   0  0  0  0  0  0  0  0  0  0  0  0
   29.8928  -11.7688   37.5469 N   0  0  0  0  0  0  0  0  0  0  0  0
   29.8082  -10.3374   37.7876 C   0  0  0  0  0  0  0  0  0  0  0  0
   28.6950  -10.2505   38.8017 C   0  0  0  0  0  0  0  0  0  0  0  0
   29.0274  -11.4014   39.7318 C   0  0  0  0  0  0  0  0  0  0  0  0
   29.5609  -12.4285   38.7743 C   0  0  0  0  0  0  0  0  0  0  0  0
 16 17  1  0  0  0
 17 11  1  0  0  0
 11 12  2  0  0  0
 12 13  1  0  0  0
 13 14  2  0  0  0
 14 15  1  0  0  0
 14  1  1  0  0  0
  1  2  2  0  0  0
  2  3  1  0  0  0
  3 18  1  0  0  0
 18 20  1  0  0  0
 20 21  1  0  0  0
 21 22  1  0  0  0
 22 23  1  0  0  0
 23 24  1  0  0  0
 24 25  1  0  0  0
 24 26  1  0  0  0
 26 27  1  0  0  0
  3  4  2  0  0  0
  4  5  1  0  0  0
  5  6  2  0  0  0
  6 28  1  0  0  0
 28 29  1  0  0  0
  6  7  1  0  0  0
  7 30  1  0  0  0
 30 31  1  0  0  0
 31 32  1  0  0  0
 32 33  1  0  0  0
 33 34  1  0  0  0
 34 35  1  0  0  0
 35 36  1  0  0  0
 36 37  1  0  0  0
 37 38  1  0  0  0
  7  8  2  0  0  0
  8  9  1  0  0  0
  9 10  2  0  0  0
 15 11  1  0  0  0
 10  1  1  0  0  0
 27 21  1  0  0  0
  9  4  1  0  0  0
 38 34  1  0  0  0
 18 19  1  0  0  0
M  END
> <minimizedAffinity>
-8.63554

> <CNNscore>
0.8700490594

> <CNNaffinity>
7.5141129494

> <CNN_VS>
6.5376467705

> <CNNaffinity_variance>
0.0434661731

$$$$
[H]c1c(-c2nc3c([H])c(OC([H])([H])C([H])([H])C([H])([H])N4C([H])([H])C([H])([H])C([H])([H])C4([H])[H])c(OC([H])([H])[H])c([H])c3c(N([H])C([H])([H])C3([H])C([H])([H])C([H])([H])N(C([H])([H])[H])C([H])([H])C3([H])[H])c2[H])oc(C([H])([H])C([H])([H])[H])c1[H]


 38 42  0  0  0  0  0  0  0  0999 V2000
   33.9598  -18.2038   35.3022 C   0  0  0  0  0  0  0  0  0  0  0  0
   35.3010  -18.4994   35.3083 C   0  0  0  0  0  0  0  0  0  0  0  0
   36.2057  -17.4825   35.6578 C   0  0  0  0  0  0  0  0  0  0  0  0
   35.7580  -16.2210   35.9859 C   0  0  0  0  0  0  0  0  0  0  0  0
   36.5969  -15.1957   36.3336 C   0  0  0  0  0  0  0  0  0  0  0  0
   36.0793  -13.9629   36.6495 C   0  0  0  0  0  0  0  0  0  0  0  0
   34.7239  -13.7033   36.6324 C   0  0  0  0  0  0  0  0  0  0  0  0
   33.8675  -14.7178   36.2864 C   0  0  0  0  0  0  0  0  0  0  0  0
   34.3813  -15.9706   35.9647 C   0  0  0  0  0  0  0  0  0  0  0  0
   33.5501  -16.9642   35.6267 N   0  0  0  0  0  0  0  0  0  0  0  0
   32.0479  -21.1469   34.5330 C   0  0  0  0  0  0  0  0  0  0  0  0
   31.0720  -20.1991   34.3258 C   0  0  0  0  0  0  0  0  0  0  0  0
   31.6795  -18.9908   34.5908 C   0  0  0  0  0  0  0  0  0  0  0  0
   32.9767  -19.2362   34.9431 C   0  0  0  0  0  0  0  0  0  0  0  0
   33.1492  -20.5311   34.8943 O   0  0  0  0  0  0  0  0  0  0  0  0
   30.7821  -23.1058   35.2547 C   0  0  0  0  0  0  0  0  0  0  0  0
   31.9119  -22.6117   34.3833 C   0  0  0  0  0  0  0  0  0  0  0  0
   37.5899  -17.7964   35.6604 N   0  0  0  0  0  0  0  0  0  0  0  0
   38.2913  -17.0522   35.6596 H   0  0  0  0  0  0  0  0  0  0  0  0
   38.0569  -19.1759   35.6640 C   0  0  0  0  0  0  0  0  0  0  0  0
   38.4061  -19.5976   37.0513 C   0  0  0  0  0  0  0  0  0  0  0  0
   39.8428  -19.9249   37.2654 C   0  0  0  0  0  0  0  0  0  0  0  0
   40.0782  -21.2037   38.0050 C   0  0  0  0  0  0  0  0  0  0  0  0
   39.2058  -21.4508   39.0917 N   0  0  0  0  0  0  0  0  0  0  0  0
   39.7242  -21.0860   40.3866 C   0  0  0  0  0  0  0  0  0  0  0  0
   37.8385  -21.0819   38.8890 C   0  0  0  0  0  0  0  0  0  0  0  0
   37.5366  -20.7738   37.4368 C   0  0  0  0  0  0  0  0  0  0  0  0
   36.9497  -12.9496   36.9958 O   0  0  0  0  0  0  0  0  0  0  0  0
   38.2381  -13.1906   37.5023 C   0  0  0  0  0  0  0  0  0  0  0  0
   34.2422  -12.4464   36.9578 O   0  0  0  0  0  0  0  0  0  0  0  0
   33.3619  -12.3145   38.0506 C   0  0  0  0  0  0  0  0  0  0  0  0
   31.9473  -12.0072   37.6146 C   0  0  0  0  0  0  0  0  0  0  0  0
   31.0426  -12.4260   38.7517 C   0  0  0  0  0  0  0  0  0  0  0  0
   29.6575  -12.4757   38.3938 N   0  0  0  0  0  0  0  0  0  0  0  0
   29.2928  -11.1624   37.8878 C   0  0  0  0  0  0  0  0  0  0  0  0
   27.8049  -11.1289   38.1330 C   0  0  0  0  0  0  0  0  0  0  0  0
   27.7024  -11.7271   39.5228 C   0  0  0  0  0  0  0  0  0  0  0  0
   28.7857  -12.7673   39.4923 C   0  0  0  0  0  0  0  0  0  0  0  0
 16 17  1  0  0  0
 17 11  1  0  0  0
 11 12  2  0  0  0
 12 13  1  0  0  0
 13 14  2  0  0  0
 14 15  1  0  0  0
 14  1  1  0  0  0
  1  2  2  0  0  0
  2  3  1  0  0  0
  3 18  1  0  0  0
 18 20  1  0  0  0
 20 21  1  0  0  0
 21 22  1  0  0  0
 22 23  1  0  0  0
 23 24  1  0  0  0
 24 25  1  0  0  0
 24 26  1  0  0  0
 26 27  1  0  0  0
  3  4  2  0  0  0
  4  5  1  0  0  0
  5  6  2  0  0  0
  6 28  1  0  0  0
 28 29  1  0  0  0
  6  7  1  0  0  0
  7 30  1  0  0  0
 30 31  1  0  0  0
 31 32  1  0  0  0
 32 33  1  0  0  0
 33 34  1  0  0  0
 34 35  1  0  0  0
 35 36  1  0  0  0
 36 37  1  0  0  0
 37 38  1  0  0  0
  7  8  2  0  0  0
  8  9  1  0  0  0
  9 10  2  0  0  0
 15 11  1  0  0  0
 10  1  1  0  0  0
 27 21  1  0  0  0
  9  4  1  0  0  0
 38 34  1  0  0  0
 18 19  1  0  0  0
M  END
> <minimizedAffinity>
-7.77560

> <CNNscore>
0.5934112668

> <CNNaffinity>
6.9537200928

> <CNN_VS>
4.1264157295

> <CNNaffinity_variance>
0.1567841917

$$$$
[H]c1c(-c2nc3c([H])c(OC([H])([H])C([H])([H])C([H])([H])N4C([H])([H])C([H])([H])C([H])([H])C4([H])[H])c(OC([H])([H])[H])c([H])c3c(N([H])C([H])([H])C3([H])C([H])([H])C([H])([H])N(C([H])([H])[H])C([H])([H])C3([H])[H])c2[H])oc(C([H])([H])C([H])([H])[H])c1[H]


 38 42  0  0  0  0  0  0  0  0999 V2000
   34.8798  -14.5578   36.3355 C   0  0  0  0  0  0  0  0  0  0  0  0
   33.7706  -15.2896   35.9884 C   0  0  0  0  0  0  0  0  0  0  0  0
   33.9018  -16.6839   35.8730 C   0  0  0  0  0  0  0  0  0  0  0  0
   35.1128  -17.3008   36.1023 C   0  0  0  0  0  0  0  0  0  0  0  0
   35.2939  -18.6547   36.0035 C   0  0  0  0  0  0  0  0  0  0  0  0
   36.5307  -19.2010   36.2471 C   0  0  0  0  0  0  0  0  0  0  0  0
   37.6233  -18.4326   36.5943 C   0  0  0  0  0  0  0  0  0  0  0  0
   37.4616  -17.0741   36.6981 C   0  0  0  0  0  0  0  0  0  0  0  0
   36.2129  -16.5104   36.4535 C   0  0  0  0  0  0  0  0  0  0  0  0
   36.0495  -15.1853   36.5537 N   0  0  0  0  0  0  0  0  0  0  0  0
   35.0967  -10.9752   36.1722 C   0  0  0  0  0  0  0  0  0  0  0  0
   34.1797  -11.0865   37.1922 C   0  0  0  0  0  0  0  0  0  0  0  0
   33.9963  -12.4412   37.3671 C   0  0  0  0  0  0  0  0  0  0  0  0
   34.7896  -13.0964   36.4681 C   0  0  0  0  0  0  0  0  0  0  0  0
   35.4246  -12.1840   35.7803 O   0  0  0  0  0  0  0  0  0  0  0  0
   34.8667   -8.5450   36.1325 C   0  0  0  0  0  0  0  0  0  0  0  0
   35.6388   -9.7262   35.5953 C   0  0  0  0  0  0  0  0  0  0  0  0
   32.7508  -17.4322   35.5127 N   0  0  0  0  0  0  0  0  0  0  0  0
   31.8780  -17.3266   36.0352 H   0  0  0  0  0  0  0  0  0  0  0  0
   32.7707  -18.3685   34.3973 C   0  0  0  0  0  0  0  0  0  0  0  0
   31.8539  -19.5129   34.6693 C   0  0  0  0  0  0  0  0  0  0  0  0
   30.4051  -19.2089   34.5086 C   0  0  0  0  0  0  0  0  0  0  0  0
   29.5469  -19.6934   35.6341 C   0  0  0  0  0  0  0  0  0  0  0  0
   29.8706  -20.9742   36.1418 N   0  0  0  0  0  0  0  0  0  0  0  0
   29.0785  -22.0581   35.6160 C   0  0  0  0  0  0  0  0  0  0  0  0
   31.2668  -21.2705   36.2405 C   0  0  0  0  0  0  0  0  0  0  0  0
   32.1289  -20.0379   36.0610 C   0  0  0  0  0  0  0  0  0  0  0  0
   36.6822  -20.5684   36.1396 O   0  0  0  0  0  0  0  0  0  0  0  0
   36.3898  -21.4532   37.1915 C   0  0  0  0  0  0  0  0  0  0  0  0
   38.8536  -19.0222   36.8320 O   0  0  0  0  0  0  0  0  0  0  0  0
   39.8066  -19.0554   35.7941 C   0  0  0  0  0  0  0  0  0  0  0  0
   41.1376  -19.6055   36.2541 C   0  0  0  0  0  0  0  0  0  0  0  0
   42.0752  -18.4253   36.3771 C   0  0  0  0  0  0  0  0  0  0  0  0
   43.2549  -18.7071   37.1371 N   0  0  0  0  0  0  0  0  0  0  0  0
   43.2668  -20.1360   37.4058 C   0  0  0  0  0  0  0  0  0  0  0  0
   44.1174  -20.2189   38.6487 C   0  0  0  0  0  0  0  0  0  0  0  0
   43.5934  -19.0537   39.4659 C   0  0  0  0  0  0  0  0  0  0  0  0
   43.3042  -18.0346   38.4009 C   0  0  0  0  0  0  0  0  0  0  0  0
 16 17  1  0  0  0
 17 11  1  0  0  0
 11 12  2  0  0  0
 12 13  1  0  0  0
 13 14  2  0  0  0
 14 15  1  0  0  0
 14  1  1  0  0  0
  1  2  2  0  0  0
  2  3  1  0  0  0
  3 18  1  0  0  0
 18 20  1  0  0  0
 20 21  1  0  0  0
 21 22  1  0  0  0
 22 23  1  0  0  0
 23 24  1  0  0  0
 24 25  1  0  0  0
 24 26  1  0  0  0
 26 27  1  0  0  0
  3  4  2  0  0  0
  4  5  1  0  0  0
  5  6  2  0  0  0
  6 28  1  0  0  0
 28 29  1  0  0  0
  6  7  1  0  0  0
  7 30  1  0  0  0
 30 31  1  0  0  0
 31 32  1  0  0  0
 32 33  1  0  0  0
 33 34  1  0  0  0
 34 35  1  0  0  0
 35 36  1  0  0  0
 36 37  1  0  0  0
 37 38  1  0  0  0
  7  8  2  0  0  0
  8  9  1  0  0  0
  9 10  2  0  0  0
 15 11  1  0  0  0
 10  1  1  0  0  0
 27 21  1  0  0  0
  9  4  1  0  0  0
 38 34  1  0  0  0
 18 19  1  0  0  0
M  END
> <minimizedAffinity>
-6.99202

> <CNNscore>
0.4948197007

> <CNNaffinity>
6.5438551903

> <CNN_VS>
3.2380285263

> <CNNaffinity_variance>
0.2025935650

$$$$
[H]c1c(-c2nc3c([H])c(OC([H])([H])C([H])([H])C([H])([H])N4C([H])([H])C([H])([H])C([H])([H])C4([H])[H])c(OC([H])([H])[H])c([H])c3c(N([H])C([H])([H])C3([H])C([H])([H])C([H])([H])N(C([H])([H])[H])C([H])([H])C3([H])[H])c2[H])oc(C([H])([H])C([H])([H])[H])c1[H]


 38 42  0  0  0  0  0  0  0  0999 V2000
   34.8694  -14.6183   36.3401 C   0  0  0  0  0  0  0  0  0  0  0  0
   33.7660  -15.3524   35.9795 C   0  0  0  0  0  0  0  0  0  0  0  0
   33.9011  -16.7465   35.8673 C   0  0  0  0  0  0  0  0  0  0  0  0
   35.1100  -17.3611   36.1130 C   0  0  0  0  0  0  0  0  0  0  0  0
   35.2947  -18.7148   36.0182 C   0  0  0  0  0  0  0  0  0  0  0  0
   36.5291  -19.2587   36.2785 C   0  0  0  0  0  0  0  0  0  0  0  0
   37.6159  -18.4880   36.6389 C   0  0  0  0  0  0  0  0  0  0  0  0
   37.4505  -17.1298   36.7391 C   0  0  0  0  0  0  0  0  0  0  0  0
   36.2042  -16.5684   36.4776 C   0  0  0  0  0  0  0  0  0  0  0  0
   36.0373  -15.2436   36.5742 N   0  0  0  0  0  0  0  0  0  0  0  0
   35.0909  -11.0356   36.1835 C   0  0  0  0  0  0  0  0  0  0  0  0
   34.1429  -11.1471   37.1748 C   0  0  0  0  0  0  0  0  0  0  0  0
   33.9543  -12.5017   37.3440 C   0  0  0  0  0  0  0  0  0  0  0  0
   34.7751  -13.1569   36.4698 C   0  0  0  0  0  0  0  0  0  0  0  0
   35.4309  -12.2444   35.8019 O   0  0  0  0  0  0  0  0  0  0  0  0
   34.8700   -8.6045   36.1467 C   0  0  0  0  0  0  0  0  0  0  0  0
   35.6503   -9.7866   35.6236 C   0  0  0  0  0  0  0  0  0  0  0  0
   32.7561  -17.4972   35.4930 N   0  0  0  0  0  0  0  0  0  0  0  0
   31.9862  -17.6338   36.1521 H   0  0  0  0  0  0  0  0  0  0  0  0
   32.6374  -18.0944   34.1700 C   0  0  0  0  0  0  0  0  0  0  0  0
   31.9454  -19.4125   34.2603 C   0  0  0  0  0  0  0  0  0  0  0  0
   30.9924  -19.5450   35.3967 C   0  0  0  0  0  0  0  0  0  0  0  0
   31.1342  -20.8161   36.1727 C   0  0  0  0  0  0  0  0  0  0  0  0
   31.3628  -21.9806   35.4016 N   0  0  0  0  0  0  0  0  0  0  0  0
   30.1877  -22.7667   35.1187 C   0  0  0  0  0  0  0  0  0  0  0  0
   32.2396  -21.8240   34.2820 C   0  0  0  0  0  0  0  0  0  0  0  0
   32.9876  -20.5073   34.3188 C   0  0  0  0  0  0  0  0  0  0  0  0
   36.6844  -20.6260   36.1746 O   0  0  0  0  0  0  0  0  0  0  0  0
   36.3777  -21.5103   37.2228 C   0  0  0  0  0  0  0  0  0  0  0  0
   38.8439  -19.0753   36.8933 O   0  0  0  0  0  0  0  0  0  0  0  0
   39.8066  -19.1175   35.8646 C   0  0  0  0  0  0  0  0  0  0  0  0
   40.4579  -20.4764   35.7432 C   0  0  0  0  0  0  0  0  0  0  0  0
   39.7686  -21.1869   34.6000 C   0  0  0  0  0  0  0  0  0  0  0  0
   39.2868  -22.4906   34.9423 N   0  0  0  0  0  0  0  0  0  0  0  0
   39.8067  -22.8127   36.2613 C   0  0  0  0  0  0  0  0  0  0  0  0
   39.7884  -24.3209   36.2509 C   0  0  0  0  0  0  0  0  0  0  0  0
   40.3201  -24.6316   34.8650 C   0  0  0  0  0  0  0  0  0  0  0  0
   39.7217  -23.5219   34.0483 C   0  0  0  0  0  0  0  0  0  0  0  0
 16 17  1  0  0  0
 17 11  1  0  0  0
 11 12  2  0  0  0
 12 13  1  0  0  0
 13 14  2  0  0  0
 14 15  1  0  0  0
 14  1  1  0  0  0
  1  2  2  0  0  0
  2  3  1  0  0  0
  3 18  1  0  0  0
 18 20  1  0  0  0
 20 21  1  0  0  0
 21 22  1  0  0  0
 22 23  1  0  0  0
 23 24  1  0  0  0
 24 25  1  0  0  0
 24 26  1  0  0  0
 26 27  1  0  0  0
  3  4  2  0  0  0
  4  5  1  0  0  0
  5  6  2  0  0  0
  6 28  1  0  0  0
 28 29  1  0  0  0
  6  7  1  0  0  0
  7 30  1  0  0  0
 30 31  1  0  0  0
 31 32  1  0  0  0
 32 33  1  0  0  0
 33 34  1  0  0  0
 34 35  1  0  0  0
 35 36  1  0  0  0
 36 37  1  0  0  0
 37 38  1  0  0  0
  7  8  2  0  0  0
  8  9  1  0  0  0
  9 10  2  0  0  0
 15 11  1  0  0  0
 10  1  1  0  0  0
 27 21  1  0  0  0
  9  4  1  0  0  0
 38 34  1  0  0  0
 18 19  1  0  0  0
M  END
> <minimizedAffinity>
-6.46554

> <CNNscore>
0.3834538162

> <CNNaffinity>
6.5283088684

> <CNN_VS>
2.5033049583

> <CNNaffinity_variance>
0.1714006513

$$$$
[H]c1c(-c2nc3c([H])c(OC([H])([H])C([H])([H])C([H])([H])N4C([H])([H])C([H])([H])C([H])([H])C4([H])[H])c(OC([H])([H])[H])c([H])c3c(N([H])C([H])([H])C3([H])C([H])([H])C([H])([H])N(C([H])([H])[H])C([H])([H])C3([H])[H])c2[H])oc(C([H])([H])C([H])([H])[H])c1[H]


 38 42  0  0  0  0  0  0  0  0999 V2000
   36.7008  -17.1821   37.0193 C   0  0  0  0  0  0  0  0  0  0  0  0
   35.8325  -18.1298   37.5033 C   0  0  0  0  0  0  0  0  0  0  0  0
   36.1725  -19.4847   37.3505 C   0  0  0  0  0  0  0  0  0  0  0  0
   37.3473  -19.8525   36.7308 C   0  0  0  0  0  0  0  0  0  0  0  0
   37.7254  -21.1574   36.5569 C   0  0  0  0  0  0  0  0  0  0  0  0
   38.9122  -21.4500   35.9298 C   0  0  0  0  0  0  0  0  0  0  0  0
   39.7601  -20.4693   35.4563 C   0  0  0  0  0  0  0  0  0  0  0  0
   39.3985  -19.1561   35.6211 C   0  0  0  0  0  0  0  0  0  0  0  0
   38.1983  -18.8485   36.2550 C   0  0  0  0  0  0  0  0  0  0  0  0
   37.8407  -17.5688   36.4187 N   0  0  0  0  0  0  0  0  0  0  0  0
   35.3137  -13.8761   37.2547 C   0  0  0  0  0  0  0  0  0  0  0  0
   36.6387  -13.5659   37.4588 C   0  0  0  0  0  0  0  0  0  0  0  0
   37.3061  -14.7699   37.3933 C   0  0  0  0  0  0  0  0  0  0  0  0
   36.3866  -15.7525   37.1568 C   0  0  0  0  0  0  0  0  0  0  0  0
   35.2170  -15.1735   37.0819 O   0  0  0  0  0  0  0  0  0  0  0  0
   33.1426  -13.4184   36.2362 C   0  0  0  0  0  0  0  0  0  0  0  0
   34.1733  -12.9352   37.2283 C   0  0  0  0  0  0  0  0  0  0  0  0
   35.2689  -20.4574   37.8525 N   0  0  0  0  0  0  0  0  0  0  0  0
   35.1674  -20.6012   38.8598 H   0  0  0  0  0  0  0  0  0  0  0  0
   34.4617  -21.2779   36.9601 C   0  0  0  0  0  0  0  0  0  0  0  0
   33.2870  -20.5015   36.4687 C   0  0  0  0  0  0  0  0  0  0  0  0
   31.9805  -21.2088   36.5680 C   0  0  0  0  0  0  0  0  0  0  0  0
   31.1455  -21.1345   35.3290 C   0  0  0  0  0  0  0  0  0  0  0  0
   31.1361  -19.8807   34.6726 N   0  0  0  0  0  0  0  0  0  0  0  0
   30.0113  -19.0351   34.9864 C   0  0  0  0  0  0  0  0  0  0  0  0
   32.3882  -19.1897   34.6318 C   0  0  0  0  0  0  0  0  0  0  0  0
   33.5465  -20.0764   35.0403 C   0  0  0  0  0  0  0  0  0  0  0  0
   39.2661  -22.7741   35.7692 O   0  0  0  0  0  0  0  0  0  0  0  0
   38.6507  -23.6196   34.8305 C   0  0  0  0  0  0  0  0  0  0  0  0
   40.9482  -20.8061   34.8298 O   0  0  0  0  0  0  0  0  0  0  0  0
   41.8193  -19.7769   34.4194 C   0  0  0  0  0  0  0  0  0  0  0  0
   43.0517  -19.6863   35.2904 C   0  0  0  0  0  0  0  0  0  0  0  0
   42.9587  -18.3751   36.0380 C   0  0  0  0  0  0  0  0  0  0  0  0
   44.1833  -17.6341   36.0505 N   0  0  0  0  0  0  0  0  0  0  0  0
   43.9306  -16.3904   36.7598 C   0  0  0  0  0  0  0  0  0  0  0  0
   44.9967  -15.4823   36.1997 C   0  0  0  0  0  0  0  0  0  0  0  0
   44.9480  -15.8160   34.7211 C   0  0  0  0  0  0  0  0  0  0  0  0
   44.6662  -17.2913   34.7463 C   0  0  0  0  0  0  0  0  0  0  0  0
 16 17  1  0  0  0
 17 11  1  0  0  0
 11 12  2  0  0  0
 12 13  1  0  0  0
 13 14  2  0  0  0
 14 15  1  0  0  0
 14  1  1  0  0  0
  1  2  2  0  0  0
  2  3  1  0  0  0
  3 18  1  0  0  0
 18 20  1  0  0  0
 20 21  1  0  0  0
 21 22  1  0  0  0
 22 23  1  0  0  0
 23 24  1  0  0  0
 24 25  1  0  0  0
 24 26  1  0  0  0
 26 27  1  0  0  0
  3  4  2  0  0  0
  4  5  1  0  0  0
  5  6  2  0  0  0
  6 28  1  0  0  0
 28 29  1  0  0  0
  6  7  1  0  0  0
  7 30  1  0  0  0
 30 31  1  0  0  0
 31 32  1  0  0  0
 32 33  1  0  0  0
 33 34  1  0  0  0
 34 35  1  0  0  0
 35 36  1  0  0  0
 36 37  1  0  0  0
 37 38  1  0  0  0
  7  8  2  0  0  0
  8  9  1  0  0  0
  9 10  2  0  0  0
 15 11  1  0  0  0
 10  1  1  0  0  0
 27 21  1  0  0  0
  9  4  1  0  0  0
 38 34  1  0  0  0
 18 19  1  0  0  0
M  END
> <minimizedAffinity>
-6.58186

> <CNNscore>
0.3336020708

> <CNNaffinity>
6.6343545914

> <CNN_VS>
2.2132344246

> <CNNaffinity_variance>
0.0756621510

$$$$
[H]c1c(-c2nc3c([H])c(OC([H])([H])C([H])([H])C([H])([H])N4C([H])([H])C([H])([H])C([H])([H])C4([H])[H])c(OC([H])([H])[H])c([H])c3c(N([H])C([H])([H])C3([H])C([H])([H])C([H])([H])N(C([H])([H])[H])C([H])([H])C3([H])[H])c2[H])oc(C([H])([H])C([H])([H])[H])c1[H]


 38 42  0  0  0  0  0  0  0  0999 V2000
   33.3991  -19.7045   36.0101 C   0  0  0  0  0  0  0  0  0  0  0  0
   34.6450  -20.1589   36.3675 C   0  0  0  0  0  0  0  0  0  0  0  0
   35.6628  -19.2138   36.5805 C   0  0  0  0  0  0  0  0  0  0  0  0
   35.4167  -17.8656   36.4345 C   0  0  0  0  0  0  0  0  0  0  0  0
   36.3726  -16.9045   36.6304 C   0  0  0  0  0  0  0  0  0  0  0  0
   36.0550  -15.5778   36.4673 C   0  0  0  0  0  0  0  0  0  0  0  0
   34.7902  -15.1589   36.1073 C   0  0  0  0  0  0  0  0  0  0  0  0
   33.8192  -16.1071   35.9064 C   0  0  0  0  0  0  0  0  0  0  0  0
   34.1301  -17.4538   36.0690 C   0  0  0  0  0  0  0  0  0  0  0  0
   33.1863  -18.3832   35.8746 N   0  0  0  0  0  0  0  0  0  0  0  0
   30.3352  -21.5454   35.6464 C   0  0  0  0  0  0  0  0  0  0  0  0
   31.2168  -22.5145   35.2256 C   0  0  0  0  0  0  0  0  0  0  0  0
   32.4630  -21.9329   35.3149 C   0  0  0  0  0  0  0  0  0  0  0  0
   32.3037  -20.6569   35.7770 C   0  0  0  0  0  0  0  0  0  0  0  0
   31.0225  -20.4721   35.9597 O   0  0  0  0  0  0  0  0  0  0  0  0
   28.4921  -22.3128   37.0516 C   0  0  0  0  0  0  0  0  0  0  0  0
   28.8641  -21.6613   35.7412 C   0  0  0  0  0  0  0  0  0  0  0  0
   36.9476  -19.6921   36.9484 N   0  0  0  0  0  0  0  0  0  0  0  0
   37.4839  -19.2270   37.6845 H   0  0  0  0  0  0  0  0  0  0  0  0
   37.5428  -20.8510   36.2973 C   0  0  0  0  0  0  0  0  0  0  0  0
   38.7736  -20.4498   35.5569 C   0  0  0  0  0  0  0  0  0  0  0  0
   38.7374  -19.0802   34.9737 C   0  0  0  0  0  0  0  0  0  0  0  0
   39.1960  -19.0054   33.5517 C   0  0  0  0  0  0  0  0  0  0  0  0
   40.3232  -19.7986   33.2306 N   0  0  0  0  0  0  0  0  0  0  0  0
   41.5849  -19.1009   33.2430 C   0  0  0  0  0  0  0  0  0  0  0  0
   40.3691  -21.0917   33.8408 C   0  0  0  0  0  0  0  0  0  0  0  0
   39.0484  -21.4730   34.4772 C   0  0  0  0  0  0  0  0  0  0  0  0
   37.0393  -14.6325   36.6717 O   0  0  0  0  0  0  0  0  0  0  0  0
   37.3570  -14.1247   37.9429 C   0  0  0  0  0  0  0  0  0  0  0  0
   34.5106  -13.8114   35.9532 O   0  0  0  0  0  0  0  0  0  0  0  0
   33.2012  -13.3530   36.2024 C   0  0  0  0  0  0  0  0  0  0  0  0
   32.9465  -13.1148   37.6734 C   0  0  0  0  0  0  0  0  0  0  0  0
   33.3268  -11.6779   37.9521 C   0  0  0  0  0  0  0  0  0  0  0  0
   32.5676  -10.7272   37.1981 N   0  0  0  0  0  0  0  0  0  0  0  0
   33.0238   -9.4023   37.5858 C   0  0  0  0  0  0  0  0  0  0  0  0
   31.8271   -8.5449   37.2572 C   0  0  0  0  0  0  0  0  0  0  0  0
   30.6812   -9.3959   37.7697 C   0  0  0  0  0  0  0  0  0  0  0  0
   31.1581  -10.7833   37.4471 C   0  0  0  0  0  0  0  0  0  0  0  0
 16 17  1  0  0  0
 17 11  1  0  0  0
 11 12  2  0  0  0
 12 13  1  0  0  0
 13 14  2  0  0  0
 14 15  1  0  0  0
 14  1  1  0  0  0
  1  2  2  0  0  0
  2  3  1  0  0  0
  3 18  1  0  0  0
 18 20  1  0  0  0
 20 21  1  0  0  0
 21 22  1  0  0  0
 22 23  1  0  0  0
 23 24  1  0  0  0
 24 25  1  0  0  0
 24 26  1  0  0  0
 26 27  1  0  0  0
  3  4  2  0  0  0
  4  5  1  0  0  0
  5  6  2  0  0  0
  6 28  1  0  0  0
 28 29  1  0  0  0
  6  7  1  0  0  0
  7 30  1  0  0  0
 30 31  1  0  0  0
 31 32  1  0  0  0
 32 33  1  0  0  0
 33 34  1  0  0  0
 34 35  1  0  0  0
 35 36  1  0  0  0
 36 37  1  0  0  0
 37 38  1  0  0  0
  7  8  2  0  0  0
  8  9  1  0  0  0
  9 10  2  0  0  0
 15 11  1  0  0  0
 10  1  1  0  0  0
 27 21  1  0  0  0
  9  4  1  0  0  0
 38 34  1  0  0  0
 18 19  1  0  0  0
M  END
> <minimizedAffinity>
-7.42856

> <CNNscore>
0.3201503754

> <CNNaffinity>
6.6638917923

> <CNN_VS>
2.1334474087

> <CNNaffinity_variance>
0.1052335873

$$$$
[H]c1c(-c2nc3c([H])c(OC([H])([H])C([H])([H])C([H])([H])N4C([H])([H])C([H])([H])C([H])([H])C4([H])[H])c(OC([H])([H])[H])c([H])c3c(N([H])C([H])([H])C3([H])C([H])([H])C([H])([H])N(C([H])([H])[H])C([H])([H])C3([H])[H])c2[H])oc(C([H])([H])C([H])([H])[H])c1[H]


 38 42  0  0  0  0  0  0  0  0999 V2000
   35.9208  -16.6761   36.2971 C   0  0  0  0  0  0  0  0  0  0  0  0
   35.0968  -17.5635   35.6492 C   0  0  0  0  0  0  0  0  0  0  0  0
   35.5787  -18.8597   35.3997 C   0  0  0  0  0  0  0  0  0  0  0  0
   36.8457  -19.2306   35.7954 C   0  0  0  0  0  0  0  0  0  0  0  0
   37.3627  -20.4799   35.5771 C   0  0  0  0  0  0  0  0  0  0  0  0
   38.6350  -20.7794   36.0002 C   0  0  0  0  0  0  0  0  0  0  0  0
   39.4343  -19.8603   36.6492 C   0  0  0  0  0  0  0  0  0  0  0  0
   38.9339  -18.6033   36.8769 C   0  0  0  0  0  0  0  0  0  0  0  0
   37.6462  -18.2893   36.4524 C   0  0  0  0  0  0  0  0  0  0  0  0
   37.1530  -17.0642   36.6724 N   0  0  0  0  0  0  0  0  0  0  0  0
   34.1931  -13.5986   36.9699 C   0  0  0  0  0  0  0  0  0  0  0  0
   35.4852  -13.1257   36.9890 C   0  0  0  0  0  0  0  0  0  0  0  0
   36.2765  -14.2259   36.7390 C   0  0  0  0  0  0  0  0  0  0  0  0
   35.4591  -15.3092   36.5794 C   0  0  0  0  0  0  0  0  0  0  0  0
   34.2304  -14.8875   36.7252 O   0  0  0  0  0  0  0  0  0  0  0  0
   33.2984  -11.4977   37.8338 C   0  0  0  0  0  0  0  0  0  0  0  0
   32.9561  -12.8170   37.1839 C   0  0  0  0  0  0  0  0  0  0  0  0
   34.7209  -19.7700   34.7286 N   0  0  0  0  0  0  0  0  0  0  0  0
   34.9347  -20.7699   34.7129 H   0  0  0  0  0  0  0  0  0  0  0  0
   33.5173  -19.3174   34.0447 C   0  0  0  0  0  0  0  0  0  0  0  0
   32.3352  -20.0969   34.5129 C   0  0  0  0  0  0  0  0  0  0  0  0
   31.0155  -19.5488   34.0944 C   0  0  0  0  0  0  0  0  0  0  0  0
   30.0058  -19.4697   35.1953 C   0  0  0  0  0  0  0  0  0  0  0  0
   29.9787  -20.5738   36.0803 N   0  0  0  0  0  0  0  0  0  0  0  0
   28.9750  -21.5667   35.7881 C   0  0  0  0  0  0  0  0  0  0  0  0
   31.2527  -21.1222   36.4312 C   0  0  0  0  0  0  0  0  0  0  0  0
   32.3984  -20.2208   36.0192 C   0  0  0  0  0  0  0  0  0  0  0  0
   39.1284  -22.0467   35.7658 O   0  0  0  0  0  0  0  0  0  0  0  0
   39.3252  -22.5615   34.4731 C   0  0  0  0  0  0  0  0  0  0  0  0
   40.7118  -20.2021   37.0601 O   0  0  0  0  0  0  0  0  0  0  0  0
   41.6830  -19.1883   37.1844 C   0  0  0  0  0  0  0  0  0  0  0  0
   42.5202  -19.3453   38.4335 C   0  0  0  0  0  0  0  0  0  0  0  0
   41.8539  -20.4142   39.2704 C   0  0  0  0  0  0  0  0  0  0  0  0
   41.4492  -19.9590   40.5657 N   0  0  0  0  0  0  0  0  0  0  0  0
   42.4254  -18.9747   41.0041 C   0  0  0  0  0  0  0  0  0  0  0  0
   42.2879  -19.0367   42.5049 C   0  0  0  0  0  0  0  0  0  0  0  0
   42.1969  -20.5306   42.7501 C   0  0  0  0  0  0  0  0  0  0  0  0
   41.4103  -20.9925   41.5567 C   0  0  0  0  0  0  0  0  0  0  0  0
 16 17  1  0  0  0
 17 11  1  0  0  0
 11 12  2  0  0  0
 12 13  1  0  0  0
 13 14  2  0  0  0
 14 15  1  0  0  0
 14  1  1  0  0  0
  1  2  2  0  0  0
  2  3  1  0  0  0
  3 18  1  0  0  0
 18 20  1  0  0  0
 20 21  1  0  0  0
 21 22  1  0  0  0
 22 23  1  0  0  0
 23 24  1  0  0  0
 24 25  1  0  0  0
 24 26  1  0  0  0
 26 27  1  0  0  0
  3  4  2  0  0  0
  4  5  1  0  0  0
  5  6  2  0  0  0
  6 28  1  0  0  0
 28 29  1  0  0  0
  6  7  1  0  0  0
  7 30  1  0  0  0
 30 31  1  0  0  0
 31 32  1  0  0  0
 32 33  1  0  0  0
 33 34  1  0  0  0
 34 35  1  0  0  0
 35 36  1  0  0  0
 36 37  1  0  0  0
 37 38  1  0  0  0
  7  8  2  0  0  0
  8  9  1  0  0  0
  9 10  2  0  0  0
 15 11  1  0  0  0
 10  1  1  0  0  0
 27 21  1  0  0  0
  9  4  1  0  0  0
 38 34  1  0  0  0
 18 19  1  0  0  0
M  END
> <minimizedAffinity>
-6.91546

> <CNNscore>
0.2585283816

> <CNNaffinity>
6.3637037277

> <CNN_VS>
1.6451979876

> <CNNaffinity_variance>
0.1507824212

$$$$
[H]c1c(-c2nc3c([H])c(OC([H])([H])C([H])([H])C([H])([H])N4C([H])([H])C([H])([H])C([H])([H])C4([H])[H])c(OC([H])([H])[H])c([H])c3c(N([H])C([H])([H])C3([H])C([H])([H])C([H])([H])N(C([H])([H])[H])C([H])([H])C3([H])[H])c2[H])oc(C([H])([H])C([H])([H])[H])c1[H]


 38 42  0  0  0  0  0  0  0  0999 V2000
   35.7016  -16.6054   36.1440 C   0  0  0  0  0  0  0  0  0  0  0  0
   34.8885  -17.5604   35.5844 C   0  0  0  0  0  0  0  0  0  0  0  0
   35.4067  -18.8540   35.4041 C   0  0  0  0  0  0  0  0  0  0  0  0
   36.6979  -19.1563   35.7795 C   0  0  0  0  0  0  0  0  0  0  0  0
   37.2506  -20.4000   35.6260 C   0  0  0  0  0  0  0  0  0  0  0  0
   38.5455  -20.6291   36.0239 C   0  0  0  0  0  0  0  0  0  0  0  0
   39.3329  -19.6432   36.5833 C   0  0  0  0  0  0  0  0  0  0  0  0
   38.7968  -18.3907   36.7451 C   0  0  0  0  0  0  0  0  0  0  0  0
   37.4860  -18.1477   36.3454 C   0  0  0  0  0  0  0  0  0  0  0  0
   36.9579  -16.9274   36.5013 N   0  0  0  0  0  0  0  0  0  0  0  0
   33.9035  -13.5556   36.7557 C   0  0  0  0  0  0  0  0  0  0  0  0
   35.1513  -13.0239   36.5232 C   0  0  0  0  0  0  0  0  0  0  0  0
   35.9640  -14.1073   36.2680 C   0  0  0  0  0  0  0  0  0  0  0  0
   35.2020  -15.2384   36.3516 C   0  0  0  0  0  0  0  0  0  0  0  0
   33.9851  -14.8606   36.6432 O   0  0  0  0  0  0  0  0  0  0  0  0
   33.0130  -11.5663   37.8559 C   0  0  0  0  0  0  0  0  0  0  0  0
   32.6659  -12.8133   37.0783 C   0  0  0  0  0  0  0  0  0  0  0  0
   34.5599  -19.8344   34.8241 N   0  0  0  0  0  0  0  0  0  0  0  0
   34.7571  -20.8302   34.9481 H   0  0  0  0  0  0  0  0  0  0  0  0
   33.3913  -19.4616   34.0389 C   0  0  0  0  0  0  0  0  0  0  0  0
   32.1896  -20.2014   34.5213 C   0  0  0  0  0  0  0  0  0  0  0  0
   30.8840  -19.5905   34.1477 C   0  0  0  0  0  0  0  0  0  0  0  0
   29.9059  -19.4931   35.2753 C   0  0  0  0  0  0  0  0  0  0  0  0
   29.8545  -20.6137   36.1383 N   0  0  0  0  0  0  0  0  0  0  0  0
   28.8033  -21.5579   35.8518 C   0  0  0  0  0  0  0  0  0  0  0  0
   31.1127  -21.2214   36.4455 C   0  0  0  0  0  0  0  0  0  0  0  0
   32.2845  -20.3596   36.0227 C   0  0  0  0  0  0  0  0  0  0  0  0
   39.0748  -21.8925   35.8564 O   0  0  0  0  0  0  0  0  0  0  0  0
   38.4062  -23.0596   36.2633 C   0  0  0  0  0  0  0  0  0  0  0  0
   40.6340  -19.9151   36.9716 O   0  0  0  0  0  0  0  0  0  0  0  0
   41.6972  -19.4291   36.1841 C   0  0  0  0  0  0  0  0  0  0  0  0
   42.5708  -18.4527   36.9385 C   0  0  0  0  0  0  0  0  0  0  0  0
   43.8197  -19.2066   37.3367 C   0  0  0  0  0  0  0  0  0  0  0  0
   44.1807  -19.0328   38.7109 N   0  0  0  0  0  0  0  0  0  0  0  0
   44.3392  -20.3576   39.2887 C   0  0  0  0  0  0  0  0  0  0  0  0
   44.0959  -20.0967   40.7543 C   0  0  0  0  0  0  0  0  0  0  0  0
   42.9024  -19.1618   40.7127 C   0  0  0  0  0  0  0  0  0  0  0  0
   43.1929  -18.3440   39.4866 C   0  0  0  0  0  0  0  0  0  0  0  0
 16 17  1  0  0  0
 17 11  1  0  0  0
 11 12  2  0  0  0
 12 13  1  0  0  0
 13 14  2  0  0  0
 14 15  1  0  0  0
 14  1  1  0  0  0
  1  2  2  0  0  0
  2  3  1  0  0  0
  3 18  1  0  0  0
 18 20  1  0  0  0
 20 21  1  0  0  0
 21 22  1  0  0  0
 22 23  1  0  0  0
 23 24  1  0  0  0
 24 25  1  0  0  0
 24 26  1  0  0  0
 26 27  1  0  0  0
  3  4  2  0  0  0
  4  5  1  0  0  0
  5  6  2  0  0  0
  6 28  1  0  0  0
 28 29  1  0  0  0
  6  7  1  0  0  0
  7 30  1  0  0  0
 30 31  1  0  0  0
 31 32  1  0  0  0
 32 33  1  0  0  0
 33 34  1  0  0  0
 34 35  1  0  0  0
 35 36  1  0  0  0
 36 37  1  0  0  0
 37 38  1  0  0  0
  7  8  2  0  0  0
  8  9  1  0  0  0
  9 10  2  0  0  0
 15 11  1  0  0  0
 10  1  1  0  0  0
 27 21  1  0  0  0
  9  4  1  0  0  0
 38 34  1  0  0  0
 18 19  1  0  0  0
M  END
> <minimizedAffinity>
-7.07073

> <CNNscore>
0.2557938099

> <CNNaffinity>
6.2723278999

> <CNN_VS>
1.6044226885

> <CNNaffinity_variance>
0.1991938800

$$$$
[H]c1c(-c2nc3c([H])c(OC([H])([H])C([H])([H])C([H])([H])N4C([H])([H])C([H])([H])C([H])([H])C4([H])[H])c(OC([H])([H])[H])c([H])c3c(N([H])C([H])([H])C3([H])C([H])([H])C([H])([H])N(C([H])([H])[H])C([H])([H])C3([H])[H])c2[H])oc(C([H])([H])C([H])([H])[H])c1[H]


 38 42  0  0  0  0  0  0  0  0999 V2000
   36.3347  -16.9695   36.9083 C   0  0  0  0  0  0  0  0  0  0  0  0
   37.0372  -17.4927   35.8504 C   0  0  0  0  0  0  0  0  0  0  0  0
   37.2046  -18.8864   35.7861 C   0  0  0  0  0  0  0  0  0  0  0  0
   36.6771  -19.7069   36.7598 C   0  0  0  0  0  0  0  0  0  0  0  0
   36.8113  -21.0697   36.7439 C   0  0  0  0  0  0  0  0  0  0  0  0
   36.2578  -21.8253   37.7490 C   0  0  0  0  0  0  0  0  0  0  0  0
   35.5576  -21.2632   38.7971 C   0  0  0  0  0  0  0  0  0  0  0  0
   35.4126  -19.8993   38.8305 C   0  0  0  0  0  0  0  0  0  0  0  0
   35.9692  -19.1244   37.8173 C   0  0  0  0  0  0  0  0  0  0  0  0
   35.8304  -17.7931   37.8448 N   0  0  0  0  0  0  0  0  0  0  0  0
   35.2078  -13.5686   37.1789 C   0  0  0  0  0  0  0  0  0  0  0  0
   36.5650  -13.3423   37.1615 C   0  0  0  0  0  0  0  0  0  0  0  0
   37.1385  -14.5912   37.0581 C   0  0  0  0  0  0  0  0  0  0  0  0
   36.1345  -15.5171   37.0169 C   0  0  0  0  0  0  0  0  0  0  0  0
   35.0055  -14.8624   37.0914 O   0  0  0  0  0  0  0  0  0  0  0  0
   33.0693  -13.0362   38.2296 C   0  0  0  0  0  0  0  0  0  0  0  0
   34.1374  -12.5532   37.2778 C   0  0  0  0  0  0  0  0  0  0  0  0
   37.9329  -19.4185   34.6901 N   0  0  0  0  0  0  0  0  0  0  0  0
   37.4727  -20.0215   34.0043 H   0  0  0  0  0  0  0  0  0  0  0  0
   39.3479  -19.1279   34.5045 C   0  0  0  0  0  0  0  0  0  0  0  0
   40.1499  -20.3800   34.6193 C   0  0  0  0  0  0  0  0  0  0  0  0
   41.3646  -20.4290   33.7594 C   0  0  0  0  0  0  0  0  0  0  0  0
   41.5301  -21.7081   33.0017 C   0  0  0  0  0  0  0  0  0  0  0  0
   41.2157  -22.8877   33.7177 N   0  0  0  0  0  0  0  0  0  0  0  0
   42.3451  -23.5672   34.3021 C   0  0  0  0  0  0  0  0  0  0  0  0
   40.0767  -22.8081   34.5797 C   0  0  0  0  0  0  0  0  0  0  0  0
   39.2525  -21.5624   34.3278 C   0  0  0  0  0  0  0  0  0  0  0  0
   36.4099  -23.1963   37.7058 O   0  0  0  0  0  0  0  0  0  0  0  0
   35.5259  -24.0402   37.0121 C   0  0  0  0  0  0  0  0  0  0  0  0
   35.0146  -22.0603   39.7909 O   0  0  0  0  0  0  0  0  0  0  0  0
   33.7494  -21.7292   40.3164 C   0  0  0  0  0  0  0  0  0  0  0  0
   33.8469  -21.0536   41.6654 C   0  0  0  0  0  0  0  0  0  0  0  0
   35.0514  -21.6469   42.3613 C   0  0  0  0  0  0  0  0  0  0  0  0
   36.0755  -20.6897   42.6506 N   0  0  0  0  0  0  0  0  0  0  0  0
   37.3525  -21.3165   42.3500 C   0  0  0  0  0  0  0  0  0  0  0  0
   38.3028  -20.5383   43.2255 C   0  0  0  0  0  0  0  0  0  0  0  0
   37.5220  -20.4347   44.5215 C   0  0  0  0  0  0  0  0  0  0  0  0
   36.1138  -20.2791   44.0224 C   0  0  0  0  0  0  0  0  0  0  0  0
 16 17  1  0  0  0
 17 11  1  0  0  0
 11 12  2  0  0  0
 12 13  1  0  0  0
 13 14  2  0  0  0
 14 15  1  0  0  0
 14  1  1  0  0  0
  1  2  2  0  0  0
  2  3  1  0  0  0
  3 18  1  0  0  0
 18 20  1  0  0  0
 20 21  1  0  0  0
 21 22  1  0  0  0
 22 23  1  0  0  0
 23 24  1  0  0  0
 24 25  1  0  0  0
 24 26  1  0  0  0
 26 27  1  0  0  0
  3  4  2  0  0  0
  4  5  1  0  0  0
  5  6  2  0  0  0
  6 28  1  0  0  0
 28 29  1  0  0  0
  6  7  1  0  0  0
  7 30  1  0  0  0
 30 31  1  0  0  0
 31 32  1  0  0  0
 32 33  1  0  0  0
 33 34  1  0  0  0
 34 35  1  0  0  0
 35 36  1  0  0  0
 36 37  1  0  0  0
 37 38  1  0  0  0
  7  8  2  0  0  0
  8  9  1  0  0  0
  9 10  2  0  0  0
 15 11  1  0  0  0
 10  1  1  0  0  0
 27 21  1  0  0  0
  9  4  1  0  0  0
 38 34  1  0  0  0
 18 19  1  0  0  0
M  END
> <minimizedAffinity>
-5.83624

> <CNNscore>
0.2392561287

> <CNNaffinity>
6.0442671776

> <CNN_VS>
1.4461280107

> <CNNaffinity_variance>
0.1205256954

$$$$
[H]c1c2c(c([H])c(OC([H])([H])[H])c1OC([H])([H])C([H])([H])C([H])([H])N1C([H])([H])C([H])([H])[C@]([H])(F)C1([H])[H])C1(C(N([H])[H])=N2)C([H])([H])C([H])([H])C1([H])[H]


 27 30  0  0  0  0  0  0  0  0999 V2000
   36.4190  -15.0129   37.2904 C   0  0  0  0  0  0  0  0  0  0  0  0
   36.8222  -16.1454   36.6277 C   0  0  0  0  0  0  0  0  0  0  0  0
   35.9635  -16.9371   35.8703 C   0  0  0  0  0  0  0  0  0  0  0  0
   34.6378  -16.5797   35.7727 C   0  0  0  0  0  0  0  0  0  0  0  0
   34.2279  -15.4330   36.4431 C   0  0  0  0  0  0  0  0  0  0  0  0
   35.0700  -14.6473   37.1908 C   0  0  0  0  0  0  0  0  0  0  0  0
   33.9797  -17.5381   34.9578 N   0  0  0  0  0  0  0  0  0  0  0  0
   34.7910  -18.4470   34.5509 C   0  0  0  0  0  0  0  0  0  0  0  0
   34.4899  -19.5753   33.7128 N   0  0  0  0  0  0  0  0  0  0  0  0
   36.1201  -18.1560   35.0782 C   0  0  0  0  0  0  0  0  0  0  0  0
   36.8391  -19.2989   35.7455 C   0  0  0  0  0  0  0  0  0  0  0  0
   37.5474  -19.5534   34.4242 C   0  0  0  0  0  0  0  0  0  0  0  0
   37.2269  -18.1234   34.0430 C   0  0  0  0  0  0  0  0  0  0  0  0
   34.0982  -19.4477   32.7702 H   0  0  0  0  0  0  0  0  0  0  0  0
   34.6722  -20.5200   34.0744 H   0  0  0  0  0  0  0  0  0  0  0  0
   38.1660  -13.2799   37.5991 C   0  0  0  0  0  0  0  0  0  0  0  0
   37.2134  -14.1888   38.0544 O   0  0  0  0  0  0  0  0  0  0  0  0
   34.6247  -13.5030   37.8451 O   0  0  0  0  0  0  0  0  0  0  0  0
   34.2438  -12.4036   37.0678 C   0  0  0  0  0  0  0  0  0  0  0  0
   33.2498  -11.5092   37.7804 C   0  0  0  0  0  0  0  0  0  0  0  0
   31.8718  -11.9848   37.4071 C   0  0  0  0  0  0  0  0  0  0  0  0
   30.8350  -11.4437   38.2630 N   0  0  0  0  0  0  0  0  0  0  0  0
   29.8394  -10.8118   37.4334 C   0  0  0  0  0  0  0  0  0  0  0  0
   28.4898  -11.2792   37.8550 C   0  0  0  0  0  0  0  0  0  0  0  0
   28.7317  -12.3796   38.8483 C   0  0  0  0  0  0  0  0  0  0  0  0
   28.1846  -12.0437   40.0746 F   0  0  0  0  0  0  0  0  0  0  0  0
   30.2148  -12.5496   38.9404 C   0  0  0  0  0  0  0  0  0  0  0  0
 16 17  1  0  0  0
 17  1  1  0  0  0
  1  2  2  0  0  0
  2  3  1  0  0  0
  3  4  2  0  0  0
  4  5  1  0  0  0
  5  6  2  0  0  0
  6 18  1  0  0  0
 18 19  1  0  0  0
 19 20  1  0  0  0
 20 21  1  0  0  0
 21 22  1  0  0  0
 22 23  1  0  0  0
 23 24  1  0  0  0
 24 25  1  0  0  0
 25 26  1  0  0  0
 25 27  1  0  0  0
  4  7  1  0  0  0
  7  8  2  0  0  0
  8  9  1  0  0  0
  8 10  1  0  0  0
 10 11  1  0  0  0
 11 12  1  0  0  0
 12 13  1  0  0  0
  6  1  1  0  0  0
 27 22  1  0  0  0
 13 10  1  0  0  0
 10  3  1  0  0  0
  9 14  1  0  0  0
  9 15  1  0  0  0
M  END
> <minimizedAffinity>
-7.84236

> <CNNscore>
0.6361493468

> <CNNaffinity>
6.1024522781

> <CNN_VS>
3.8820710182

> <CNNaffinity_variance>
0.1886340827

$$$$
[H]c1c2c(c([H])c(OC([H])([H])[H])c1OC([H])([H])C([H])([H])C([H])([H])N1C([H])([H])C([H])([H])[C@]([H])(F)C1([H])[H])C1(C(N([H])[H])=N2)C([H])([H])C([H])([H])C1([H])[H]


 27 30  0  0  0  0  0  0  0  0999 V2000
   36.5446  -15.0392   37.2883 C   0  0  0  0  0  0  0  0  0  0  0  0
   36.9347  -16.1804   36.6328 C   0  0  0  0  0  0  0  0  0  0  0  0
   36.0685  -16.9628   35.8743 C   0  0  0  0  0  0  0  0  0  0  0  0
   34.7486  -16.5865   35.7681 C   0  0  0  0  0  0  0  0  0  0  0  0
   34.3521  -15.4310   36.4311 C   0  0  0  0  0  0  0  0  0  0  0  0
   35.2016  -14.6543   37.1798 C   0  0  0  0  0  0  0  0  0  0  0  0
   34.0809  -17.5389   34.9538 N   0  0  0  0  0  0  0  0  0  0  0  0
   34.8809  -18.4614   34.5553 C   0  0  0  0  0  0  0  0  0  0  0  0
   34.5678  -19.5889   33.7207 N   0  0  0  0  0  0  0  0  0  0  0  0
   36.2113  -18.1874   35.0884 C   0  0  0  0  0  0  0  0  0  0  0  0
   36.9100  -19.3377   35.7647 C   0  0  0  0  0  0  0  0  0  0  0  0
   37.6215  -19.6085   34.4483 C   0  0  0  0  0  0  0  0  0  0  0  0
   37.3240  -18.1758   34.0591 C   0  0  0  0  0  0  0  0  0  0  0  0
   34.1830  -19.4598   32.7754 H   0  0  0  0  0  0  0  0  0  0  0  0
   34.7343  -20.5345   34.0874 H   0  0  0  0  0  0  0  0  0  0  0  0
   38.3118  -13.3270   37.5984 C   0  0  0  0  0  0  0  0  0  0  0  0
   37.3469  -14.2233   38.0529 O   0  0  0  0  0  0  0  0  0  0  0  0
   34.7697  -13.5007   37.8267 O   0  0  0  0  0  0  0  0  0  0  0  0
   34.4396  -12.3887   37.0440 C   0  0  0  0  0  0  0  0  0  0  0  0
   33.3977  -11.5076   37.7027 C   0  0  0  0  0  0  0  0  0  0  0  0
   32.5570  -12.3911   38.5843 C   0  0  0  0  0  0  0  0  0  0  0  0
   31.1839  -12.4989   38.1332 N   0  0  0  0  0  0  0  0  0  0  0  0
   30.3415  -12.7292   39.2804 C   0  0  0  0  0  0  0  0  0  0  0  0
   29.1867  -11.7904   39.2297 C   0  0  0  0  0  0  0  0  0  0  0  0
   29.4803  -10.8440   38.1009 C   0  0  0  0  0  0  0  0  0  0  0  0
   28.4959  -10.9373   37.1322 F   0  0  0  0  0  0  0  0  0  0  0  0
   30.8186  -11.2330   37.5583 C   0  0  0  0  0  0  0  0  0  0  0  0
 16 17  1  0  0  0
 17  1  1  0  0  0
  1  2  2  0  0  0
  2  3  1  0  0  0
  3  4  2  0  0  0
  4  5  1  0  0  0
  5  6  2  0  0  0
  6 18  1  0  0  0
 18 19  1  0  0  0
 19 20  1  0  0  0
 20 21  1  0  0  0
 21 22  1  0  0  0
 22 23  1  0  0  0
 23 24  1  0  0  0
 24 25  1  0  0  0
 25 26  1  0  0  0
 25 27  1  0  0  0
  4  7  1  0  0  0
  7  8  2  0  0  0
  8  9  1  0  0  0
  8 10  1  0  0  0
 10 11  1  0  0  0
 11 12  1  0  0  0
 12 13  1  0  0  0
  6  1  1  0  0  0
 27 22  1  0  0  0
 13 10  1  0  0  0
 10  3  1  0  0  0
  9 14  1  0  0  0
  9 15  1  0  0  0
M  END
> <minimizedAffinity>
-8.10758

> <CNNscore>
0.5085638762

> <CNNaffinity>
5.9263529778

> <CNN_VS>
3.0139291286

> <CNNaffinity_variance>
0.1232704371

$$$$
[H]c1c2c(c([H])c(OC([H])([H])[H])c1OC([H])([H])C([H])([H])C([H])([H])N1C([H])([H])C([H])([H])[C@]([H])(F)C1([H])[H])C1(C(N([H])[H])=N2)C([H])([H])C([H])([H])C1([H])[H]


 27 30  0  0  0  0  0  0  0  0999 V2000
   36.1288  -14.1801   37.2096 C   0  0  0  0  0  0  0  0  0  0  0  0
   35.5837  -12.9326   37.3852 C   0  0  0  0  0  0  0  0  0  0  0  0
   34.2477  -12.6368   37.1293 C   0  0  0  0  0  0  0  0  0  0  0  0
   33.4180  -13.6365   36.6741 C   0  0  0  0  0  0  0  0  0  0  0  0
   33.9684  -14.9004   36.4958 C   0  0  0  0  0  0  0  0  0  0  0  0
   35.2848  -15.1988   36.7475 C   0  0  0  0  0  0  0  0  0  0  0  0
   32.1224  -13.0861   36.4882 N   0  0  0  0  0  0  0  0  0  0  0  0
   32.0926  -11.8384   36.7918 C   0  0  0  0  0  0  0  0  0  0  0  0
   30.9635  -10.9511   36.7309 N   0  0  0  0  0  0  0  0  0  0  0  0
   33.4238  -11.4334   37.2315 C   0  0  0  0  0  0  0  0  0  0  0  0
   33.9839  -10.1846   36.6027 C   0  0  0  0  0  0  0  0  0  0  0  0
   33.4781   -9.4140   37.8121 C   0  0  0  0  0  0  0  0  0  0  0  0
   33.4680  -10.7245   38.5706 C   0  0  0  0  0  0  0  0  0  0  0  0
   30.1076  -11.1425   37.2685 H   0  0  0  0  0  0  0  0  0  0  0  0
   31.0249  -10.1159   36.1350 H   0  0  0  0  0  0  0  0  0  0  0  0
   38.5187  -13.6855   37.6502 C   0  0  0  0  0  0  0  0  0  0  0  0
   37.4370  -14.5384   37.4421 O   0  0  0  0  0  0  0  0  0  0  0  0
   35.8002  -16.4777   36.5615 O   0  0  0  0  0  0  0  0  0  0  0  0
   35.8250  -16.9973   35.2624 C   0  0  0  0  0  0  0  0  0  0  0  0
   35.0580  -18.2989   35.1463 C   0  0  0  0  0  0  0  0  0  0  0  0
   33.8201  -18.0184   34.3381 C   0  0  0  0  0  0  0  0  0  0  0  0
   32.6319  -18.6395   34.8884 N   0  0  0  0  0  0  0  0  0  0  0  0
   32.0638  -19.5083   33.8879 C   0  0  0  0  0  0  0  0  0  0  0  0
   31.7729  -20.8322   34.5045 C   0  0  0  0  0  0  0  0  0  0  0  0
   32.3804  -20.7844   35.8774 C   0  0  0  0  0  0  0  0  0  0  0  0
   31.3988  -20.9504   36.8392 F   0  0  0  0  0  0  0  0  0  0  0  0
   33.0456  -19.4506   36.0009 C   0  0  0  0  0  0  0  0  0  0  0  0
 16 17  1  0  0  0
 17  1  1  0  0  0
  1  2  2  0  0  0
  2  3  1  0  0  0
  3  4  2  0  0  0
  4  5  1  0  0  0
  5  6  2  0  0  0
  6 18  1  0  0  0
 18 19  1  0  0  0
 19 20  1  0  0  0
 20 21  1  0  0  0
 21 22  1  0  0  0
 22 23  1  0  0  0
 23 24  1  0  0  0
 24 25  1  0  0  0
 25 26  1  0  0  0
 25 27  1  0  0  0
  4  7  1  0  0  0
  7  8  2  0  0  0
  8  9  1  0  0  0
  8 10  1  0  0  0
 10 11  1  0  0  0
 11 12  1  0  0  0
 12 13  1  0  0  0
  6  1  1  0  0  0
 27 22  1  0  0  0
 13 10  1  0  0  0
 10  3  1  0  0  0
  9 14  1  0  0  0
  9 15  1  0  0  0
M  END
> <minimizedAffinity>
-5.22014

> <CNNscore>
0.4923893213

> <CNNaffinity>
6.0031018257

> <CNN_VS>
2.9558632374

> <CNNaffinity_variance>
0.0284123234

$$$$
[H]c1c2c(c([H])c(OC([H])([H])[H])c1OC([H])([H])C([H])([H])C([H])([H])N1C([H])([H])C([H])([H])[C@]([H])(F)C1([H])[H])C1(C(N([H])[H])=N2)C([H])([H])C([H])([H])C1([H])[H]


 27 30  0  0  0  0  0  0  0  0999 V2000
   36.0953  -14.0187   36.8609 C   0  0  0  0  0  0  0  0  0  0  0  0
   35.5395  -12.7905   37.1195 C   0  0  0  0  0  0  0  0  0  0  0  0
   34.1817  -12.5182   36.9773 C   0  0  0  0  0  0  0  0  0  0  0  0
   33.3402  -13.5222   36.5544 C   0  0  0  0  0  0  0  0  0  0  0  0
   33.9015  -14.7666   36.2923 C   0  0  0  0  0  0  0  0  0  0  0  0
   35.2395  -15.0419   36.4317 C   0  0  0  0  0  0  0  0  0  0  0  0
   32.0229  -12.9969   36.4874 N   0  0  0  0  0  0  0  0  0  0  0  0
   31.9907  -11.7604   36.8336 C   0  0  0  0  0  0  0  0  0  0  0  0
   30.8418  -10.8984   36.8895 N   0  0  0  0  0  0  0  0  0  0  0  0
   33.3432  -11.3383   37.1826 C   0  0  0  0  0  0  0  0  0  0  0  0
   33.8264  -10.0575   36.5544 C   0  0  0  0  0  0  0  0  0  0  0  0
   33.4002   -9.3375   37.8242 C   0  0  0  0  0  0  0  0  0  0  0  0
   33.4766  -10.6711   38.5372 C   0  0  0  0  0  0  0  0  0  0  0  0
   30.0345  -11.1267   37.4848 H   0  0  0  0  0  0  0  0  0  0  0  0
   30.8392  -10.0436   36.3188 H   0  0  0  0  0  0  0  0  0  0  0  0
   38.4297  -13.6047   37.5888 C   0  0  0  0  0  0  0  0  0  0  0  0
   37.4249  -14.3533   36.9799 O   0  0  0  0  0  0  0  0  0  0  0  0
   35.7656  -16.3018   36.1640 O   0  0  0  0  0  0  0  0  0  0  0  0
   34.9788  -17.2064   35.4425 C   0  0  0  0  0  0  0  0  0  0  0  0
   35.4861  -18.6298   35.5539 C   0  0  0  0  0  0  0  0  0  0  0  0
   36.4172  -18.8652   34.3954 C   0  0  0  0  0  0  0  0  0  0  0  0
   37.7139  -18.2435   34.5759 N   0  0  0  0  0  0  0  0  0  0  0  0
   38.3986  -18.9159   35.6519 C   0  0  0  0  0  0  0  0  0  0  0  0
   39.7819  -19.2491   35.2126 C   0  0  0  0  0  0  0  0  0  0  0  0
   39.8332  -18.9243   33.7470 C   0  0  0  0  0  0  0  0  0  0  0  0
   40.7862  -17.9492   33.5079 F   0  0  0  0  0  0  0  0  0  0  0  0
   38.4647  -18.4546   33.3683 C   0  0  0  0  0  0  0  0  0  0  0  0
 16 17  1  0  0  0
 17  1  1  0  0  0
  1  2  2  0  0  0
  2  3  1  0  0  0
  3  4  2  0  0  0
  4  5  1  0  0  0
  5  6  2  0  0  0
  6 18  1  0  0  0
 18 19  1  0  0  0
 19 20  1  0  0  0
 20 21  1  0  0  0
 21 22  1  0  0  0
 22 23  1  0  0  0
 23 24  1  0  0  0
 24 25  1  0  0  0
 25 26  1  0  0  0
 25 27  1  0  0  0
  4  7  1  0  0  0
  7  8  2  0  0  0
  8  9  1  0  0  0
  8 10  1  0  0  0
 10 11  1  0  0  0
 11 12  1  0  0  0
 12 13  1  0  0  0
  6  1  1  0  0  0
 27 22  1  0  0  0
 13 10  1  0  0  0
 10  3  1  0  0  0
  9 14  1  0  0  0
  9 15  1  0  0  0
M  END
> <minimizedAffinity>
-5.35065

> <CNNscore>
0.4878635705

> <CNNaffinity>
5.9355707169

> <CNN_VS>
2.8957486153

> <CNNaffinity_variance>
0.0658062026

$$$$
[H]c1c2c(c([H])c(OC([H])([H])[H])c1OC([H])([H])C([H])([H])C([H])([H])N1C([H])([H])C([H])([H])[C@]([H])(F)C1([H])[H])C1(C(N([H])[H])=N2)C([H])([H])C([H])([H])C1([H])[H]


 27 30  0  0  0  0  0  0  0  0999 V2000
   35.3912  -21.5711   37.6795 C   0  0  0  0  0  0  0  0  0  0  0  0
   34.4166  -21.2231   36.7777 C   0  0  0  0  0  0  0  0  0  0  0  0
   34.2488  -19.9295   36.2914 C   0  0  0  0  0  0  0  0  0  0  0  0
   35.0954  -18.9365   36.7297 C   0  0  0  0  0  0  0  0  0  0  0  0
   36.0830  -19.2873   37.6428 C   0  0  0  0  0  0  0  0  0  0  0  0
   36.2545  -20.5613   38.1254 C   0  0  0  0  0  0  0  0  0  0  0  0
   34.7194  -17.7227   36.0961 N   0  0  0  0  0  0  0  0  0  0  0  0
   33.7179  -17.8923   35.3099 C   0  0  0  0  0  0  0  0  0  0  0  0
   33.0624  -16.8993   34.5035 N   0  0  0  0  0  0  0  0  0  0  0  0
   33.3267  -19.2975   35.3491 C   0  0  0  0  0  0  0  0  0  0  0  0
   31.8616  -19.5776   35.5580 C   0  0  0  0  0  0  0  0  0  0  0  0
   31.7261  -19.7033   34.0486 C   0  0  0  0  0  0  0  0  0  0  0  0
   33.2158  -19.9695   33.9949 C   0  0  0  0  0  0  0  0  0  0  0  0
   33.5801  -16.3655   33.7927 H   0  0  0  0  0  0  0  0  0  0  0  0
   32.0596  -16.7285   34.6510 H   0  0  0  0  0  0  0  0  0  0  0  0
   35.3765  -24.0488   37.5736 C   0  0  0  0  0  0  0  0  0  0  0  0
   35.6104  -22.8263   38.1994 O   0  0  0  0  0  0  0  0  0  0  0  0
   37.2577  -20.8766   39.0363 O   0  0  0  0  0  0  0  0  0  0  0  0
   38.5683  -20.9958   38.5605 C   0  0  0  0  0  0  0  0  0  0  0  0
   39.5810  -21.1143   39.6813 C   0  0  0  0  0  0  0  0  0  0  0  0
   40.9445  -20.9205   39.0749 C   0  0  0  0  0  0  0  0  0  0  0  0
   41.3701  -19.5351   39.0699 N   0  0  0  0  0  0  0  0  0  0  0  0
   42.1081  -19.2781   40.2815 C   0  0  0  0  0  0  0  0  0  0  0  0
   43.3783  -18.5816   39.9366 C   0  0  0  0  0  0  0  0  0  0  0  0
   43.4648  -18.6108   38.4374 C   0  0  0  0  0  0  0  0  0  0  0  0
   43.4860  -17.3208   37.9359 F   0  0  0  0  0  0  0  0  0  0  0  0
   42.2646  -19.3632   37.9577 C   0  0  0  0  0  0  0  0  0  0  0  0
 16 17  1  0  0  0
 17  1  1  0  0  0
  1  2  2  0  0  0
  2  3  1  0  0  0
  3  4  2  0  0  0
  4  5  1  0  0  0
  5  6  2  0  0  0
  6 18  1  0  0  0
 18 19  1  0  0  0
 19 20  1  0  0  0
 20 21  1  0  0  0
 21 22  1  0  0  0
 22 23  1  0  0  0
 23 24  1  0  0  0
 24 25  1  0  0  0
 25 26  1  0  0  0
 25 27  1  0  0  0
  4  7  1  0  0  0
  7  8  2  0  0  0
  8  9  1  0  0  0
  8 10  1  0  0  0
 10 11  1  0  0  0
 11 12  1  0  0  0
 12 13  1  0  0  0
  6  1  1  0  0  0
 27 22  1  0  0  0
 13 10  1  0  0  0
 10  3  1  0  0  0
  9 14  1  0  0  0
  9 15  1  0  0  0
M  END
> <minimizedAffinity>
-4.87535

> <CNNscore>
0.4696228802

> <CNNaffinity>
4.5460519791

> <CNN_VS>
2.1349301338

> <CNNaffinity_variance>
0.2003159523

$$$$
[H]c1c2c(c([H])c(OC([H])([H])[H])c1OC([H])([H])C([H])([H])C([H])([H])N1C([H])([H])C([H])([H])[C@]([H])(F)C1([H])[H])C1(C(N([H])[H])=N2)C([H])([H])C([H])([H])C1([H])[H]


 27 30  0  0  0  0  0  0  0  0999 V2000
   36.4524  -18.7387   36.8320 C   0  0  0  0  0  0  0  0  0  0  0  0
   37.4786  -19.5689   36.4555 C   0  0  0  0  0  0  0  0  0  0  0  0
   38.1413  -19.4641   35.2358 C   0  0  0  0  0  0  0  0  0  0  0  0
   37.7578  -18.4828   34.3498 C   0  0  0  0  0  0  0  0  0  0  0  0
   36.7188  -17.6411   34.7296 C   0  0  0  0  0  0  0  0  0  0  0  0
   36.0619  -17.7386   35.9315 C   0  0  0  0  0  0  0  0  0  0  0  0
   38.5750  -18.5865   33.1934 N   0  0  0  0  0  0  0  0  0  0  0  0
   39.4228  -19.5455   33.3001 C   0  0  0  0  0  0  0  0  0  0  0  0
   40.4083  -19.9517   32.3360 N   0  0  0  0  0  0  0  0  0  0  0  0
   39.2393  -20.1882   34.5973 C   0  0  0  0  0  0  0  0  0  0  0  0
   39.1337  -21.6907   34.5895 C   0  0  0  0  0  0  0  0  0  0  0  0
   40.6202  -21.7425   34.9057 C   0  0  0  0  0  0  0  0  0  0  0  0
   40.4997  -20.3263   35.4278 C   0  0  0  0  0  0  0  0  0  0  0  0
   41.1306  -19.2976   32.0063 H   0  0  0  0  0  0  0  0  0  0  0  0
   40.3785  -20.9143   31.9767 H   0  0  0  0  0  0  0  0  0  0  0  0
   35.2427  -19.9215   38.6454 C   0  0  0  0  0  0  0  0  0  0  0  0
   35.7566  -18.7885   38.0183 O   0  0  0  0  0  0  0  0  0  0  0  0
   35.0282  -16.8748   36.2797 O   0  0  0  0  0  0  0  0  0  0  0  0
   33.8719  -16.8771   35.4918 C   0  0  0  0  0  0  0  0  0  0  0  0
   33.1852  -18.2277   35.4778 C   0  0  0  0  0  0  0  0  0  0  0  0
   32.8665  -18.5530   34.0436 C   0  0  0  0  0  0  0  0  0  0  0  0
   31.8101  -19.5358   33.9073 N   0  0  0  0  0  0  0  0  0  0  0  0
   32.3478  -20.8341   34.2299 C   0  0  0  0  0  0  0  0  0  0  0  0
   31.4307  -21.5145   35.1856 C   0  0  0  0  0  0  0  0  0  0  0  0
   30.4147  -20.4813   35.5809 C   0  0  0  0  0  0  0  0  0  0  0  0
   29.1455  -20.8969   35.2165 F   0  0  0  0  0  0  0  0  0  0  0  0
   30.7983  -19.2182   34.8778 C   0  0  0  0  0  0  0  0  0  0  0  0
 16 17  1  0  0  0
 17  1  1  0  0  0
  1  2  2  0  0  0
  2  3  1  0  0  0
  3  4  2  0  0  0
  4  5  1  0  0  0
  5  6  2  0  0  0
  6 18  1  0  0  0
 18 19  1  0  0  0
 19 20  1  0  0  0
 20 21  1  0  0  0
 21 22  1  0  0  0
 22 23  1  0  0  0
 23 24  1  0  0  0
 24 25  1  0  0  0
 25 26  1  0  0  0
 25 27  1  0  0  0
  4  7  1  0  0  0
  7  8  2  0  0  0
  8  9  1  0  0  0
  8 10  1  0  0  0
 10 11  1  0  0  0
 11 12  1  0  0  0
 12 13  1  0  0  0
  6  1  1  0  0  0
 27 22  1  0  0  0
 13 10  1  0  0  0
 10  3  1  0  0  0
  9 14  1  0  0  0
  9 15  1  0  0  0
M  END
> <minimizedAffinity>
-6.16026

> <CNNscore>
0.4637067914

> <CNNaffinity>
5.1407651901

> <CNN_VS>
2.3838076591

> <CNNaffinity_variance>
0.4212641716

$$$$
[H]c1c2c(c([H])c(OC([H])([H])[H])c1OC([H])([H])C([H])([H])C([H])([H])N1C([H])([H])C([H])([H])[C@]([H])(F)C1([H])[H])C1(C(N([H])[H])=N2)C([H])([H])C([H])([H])C1([H])[H]


 27 30  0  0  0  0  0  0  0  0999 V2000
   35.9266  -18.2537   34.8116 C   0  0  0  0  0  0  0  0  0  0  0  0
   36.4017  -17.1702   35.5076 C   0  0  0  0  0  0  0  0  0  0  0  0
   35.5852  -16.1522   35.9921 C   0  0  0  0  0  0  0  0  0  0  0  0
   34.2287  -16.2207   35.7680 C   0  0  0  0  0  0  0  0  0  0  0  0
   33.7459  -17.3174   35.0635 C   0  0  0  0  0  0  0  0  0  0  0  0
   34.5457  -18.3252   34.5840 C   0  0  0  0  0  0  0  0  0  0  0  0
   33.6252  -15.0757   36.3517 N   0  0  0  0  0  0  0  0  0  0  0  0
   34.4976  -14.3174   36.9120 C   0  0  0  0  0  0  0  0  0  0  0  0
   34.2639  -13.0777   37.6008 N   0  0  0  0  0  0  0  0  0  0  0  0
   35.8155  -14.9219   36.7477 C   0  0  0  0  0  0  0  0  0  0  0  0
   36.9062  -14.0178   36.2364 C   0  0  0  0  0  0  0  0  0  0  0  0
   37.3203  -13.7901   37.6818 C   0  0  0  0  0  0  0  0  0  0  0  0
   36.6108  -15.0821   38.0281 C   0  0  0  0  0  0  0  0  0  0  0  0
   33.6423  -13.0333   38.4192 H   0  0  0  0  0  0  0  0  0  0  0  0
   34.7308  -12.2284   37.2583 H   0  0  0  0  0  0  0  0  0  0  0  0
   37.9838  -19.2288   33.8278 C   0  0  0  0  0  0  0  0  0  0  0  0
   36.6767  -19.2908   34.3059 O   0  0  0  0  0  0  0  0  0  0  0  0
   34.0262  -19.4109   33.8860 O   0  0  0  0  0  0  0  0  0  0  0  0
   32.6407  -19.4757   33.7015 C   0  0  0  0  0  0  0  0  0  0  0  0
   31.9842  -20.4955   34.6098 C   0  0  0  0  0  0  0  0  0  0  0  0
   30.6276  -19.9588   34.9786 C   0  0  0  0  0  0  0  0  0  0  0  0
   30.1406  -20.4715   36.2436 N   0  0  0  0  0  0  0  0  0  0  0  0
   28.8512  -21.0787   36.0261 C   0  0  0  0  0  0  0  0  0  0  0  0
   28.8345  -22.4231   36.6662 C   0  0  0  0  0  0  0  0  0  0  0  0
   30.2466  -22.6814   37.1082 C   0  0  0  0  0  0  0  0  0  0  0  0
   30.2939  -22.8449   38.4820 F   0  0  0  0  0  0  0  0  0  0  0  0
   31.0510  -21.4986   36.6713 C   0  0  0  0  0  0  0  0  0  0  0  0
 16 17  1  0  0  0
 17  1  1  0  0  0
  1  2  2  0  0  0
  2  3  1  0  0  0
  3  4  2  0  0  0
  4  5  1  0  0  0
  5  6  2  0  0  0
  6 18  1  0  0  0
 18 19  1  0  0  0
 19 20  1  0  0  0
 20 21  1  0  0  0
 21 22  1  0  0  0
 22 23  1  0  0  0
 23 24  1  0  0  0
 24 25  1  0  0  0
 25 26  1  0  0  0
 25 27  1  0  0  0
  4  7  1  0  0  0
  7  8  2  0  0  0
  8  9  1  0  0  0
  8 10  1  0  0  0
 10 11  1  0  0  0
 11 12  1  0  0  0
 12 13  1  0  0  0
  6  1  1  0  0  0
 27 22  1  0  0  0
 13 10  1  0  0  0
 10  3  1  0  0  0
  9 14  1  0  0  0
  9 15  1  0  0  0
M  END
> <minimizedAffinity>
-6.86387

> <CNNscore>
0.4378073812

> <CNNaffinity>
5.2613892555

> <CNN_VS>
2.3034751415

> <CNNaffinity_variance>
0.3551985323

$$$$
[H]c1c2c(c([H])c(OC([H])([H])[H])c1OC([H])([H])C([H])([H])C([H])([H])N1C([H])([H])C([H])([H])[C@]([H])(F)C1([H])[H])C1(C(N([H])[H])=N2)C([H])([H])C([H])([H])C1([H])[H]


 27 30  0  0  0  0  0  0  0  0999 V2000
   35.1772  -21.7009   37.4887 C   0  0  0  0  0  0  0  0  0  0  0  0
   34.1881  -21.2922   36.6291 C   0  0  0  0  0  0  0  0  0  0  0  0
   34.0766  -19.9890   36.1528 C   0  0  0  0  0  0  0  0  0  0  0  0
   34.9977  -19.0493   36.5572 C   0  0  0  0  0  0  0  0  0  0  0  0
   36.0001  -19.4616   37.4275 C   0  0  0  0  0  0  0  0  0  0  0  0
   36.1163  -20.7456   37.9000 C   0  0  0  0  0  0  0  0  0  0  0  0
   34.6678  -17.8128   35.9422 N   0  0  0  0  0  0  0  0  0  0  0  0
   33.6262  -17.9197   35.1983 C   0  0  0  0  0  0  0  0  0  0  0  0
   32.9973  -16.8865   34.4220 N   0  0  0  0  0  0  0  0  0  0  0  0
   33.1549  -19.2997   35.2511 C   0  0  0  0  0  0  0  0  0  0  0  0
   31.6858  -19.4942   35.5206 C   0  0  0  0  0  0  0  0  0  0  0  0
   31.4804  -19.6051   34.0180 C   0  0  0  0  0  0  0  0  0  0  0  0
   32.9482  -19.9581   33.9015 C   0  0  0  0  0  0  0  0  0  0  0  0
   33.5154  -16.3809   33.6911 H   0  0  0  0  0  0  0  0  0  0  0  0
   32.0133  -16.6577   34.6116 H   0  0  0  0  0  0  0  0  0  0  0  0
   34.7983  -23.4834   39.1709 C   0  0  0  0  0  0  0  0  0  0  0  0
   35.3435  -22.9691   37.9965 O   0  0  0  0  0  0  0  0  0  0  0  0
   37.1363  -21.1233   38.7675 O   0  0  0  0  0  0  0  0  0  0  0  0
   38.4358  -20.6848   38.4897 C   0  0  0  0  0  0  0  0  0  0  0  0
   39.0329  -21.3771   37.2814 C   0  0  0  0  0  0  0  0  0  0  0  0
   40.1138  -20.4806   36.7406 C   0  0  0  0  0  0  0  0  0  0  0  0
   40.2831  -20.5999   35.3062 N   0  0  0  0  0  0  0  0  0  0  0  0
   38.9943  -20.4467   34.6783 C   0  0  0  0  0  0  0  0  0  0  0  0
   39.1130  -19.4702   33.5604 C   0  0  0  0  0  0  0  0  0  0  0  0
   40.4934  -18.8887   33.6722 C   0  0  0  0  0  0  0  0  0  0  0  0
   41.2208  -19.1635   32.5270 F   0  0  0  0  0  0  0  0  0  0  0  0
   41.1197  -19.5116   34.8792 C   0  0  0  0  0  0  0  0  0  0  0  0
 16 17  1  0  0  0
 17  1  1  0  0  0
  1  2  2  0  0  0
  2  3  1  0  0  0
  3  4  2  0  0  0
  4  5  1  0  0  0
  5  6  2  0  0  0
  6 18  1  0  0  0
 18 19  1  0  0  0
 19 20  1  0  0  0
 20 21  1  0  0  0
 21 22  1  0  0  0
 22 23  1  0  0  0
 23 24  1  0  0  0
 24 25  1  0  0  0
 25 26  1  0  0  0
 25 27  1  0  0  0
  4  7  1  0  0  0
  7  8  2  0  0  0
  8  9  1  0  0  0
  8 10  1  0  0  0
 10 11  1  0  0  0
 11 12  1  0  0  0
 12 13  1  0  0  0
  6  1  1  0  0  0
 27 22  1  0  0  0
 13 10  1  0  0  0
 10  3  1  0  0  0
  9 14  1  0  0  0
  9 15  1  0  0  0
M  END
> <minimizedAffinity>
-4.56499

> <CNNscore>
0.4377419353

> <CNNaffinity>
4.9001588821

> <CNN_VS>
2.1450049877

> <CNNaffinity_variance>
0.1801433861

$$$$
[H]c1c2c(c([H])c(OC([H])([H])[H])c1OC([H])([H])C([H])([H])C([H])([H])N1C([H])([H])C([H])([H])[C@]([H])(F)C1([H])[H])C1(C(N([H])[H])=N2)C([H])([H])C([H])([H])C1([H])[H]


 27 30  0  0  0  0  0  0  0  0999 V2000
   35.9067  -18.1047   34.7289 C   0  0  0  0  0  0  0  0  0  0  0  0
   36.3904  -17.0372   35.4435 C   0  0  0  0  0  0  0  0  0  0  0  0
   35.5777  -16.0419   35.9791 C   0  0  0  0  0  0  0  0  0  0  0  0
   34.2165  -16.1173   35.7890 C   0  0  0  0  0  0  0  0  0  0  0  0
   33.7251  -17.1979   35.0658 C   0  0  0  0  0  0  0  0  0  0  0  0
   34.5210  -18.1834   34.5359 C   0  0  0  0  0  0  0  0  0  0  0  0
   33.6183  -14.9958   36.4218 N   0  0  0  0  0  0  0  0  0  0  0  0
   34.4983  -14.2455   36.9808 C   0  0  0  0  0  0  0  0  0  0  0  0
   34.2718  -13.0287   37.7115 N   0  0  0  0  0  0  0  0  0  0  0  0
   35.8168  -14.8318   36.7641 C   0  0  0  0  0  0  0  0  0  0  0  0
   36.8852  -13.9024   36.2507 C   0  0  0  0  0  0  0  0  0  0  0  0
   37.3356  -13.7126   37.6907 C   0  0  0  0  0  0  0  0  0  0  0  0
   36.6475  -15.0212   38.0178 C   0  0  0  0  0  0  0  0  0  0  0  0
   33.6719  -13.0143   38.5470 H   0  0  0  0  0  0  0  0  0  0  0  0
   34.7215  -12.1652   37.3819 H   0  0  0  0  0  0  0  0  0  0  0  0
   38.0251  -19.1208   33.9345 C   0  0  0  0  0  0  0  0  0  0  0  0
   36.6525  -19.1192   34.1734 O   0  0  0  0  0  0  0  0  0  0  0  0
   33.9930  -19.2534   33.8204 O   0  0  0  0  0  0  0  0  0  0  0  0
   32.7946  -19.8203   34.2682 C   0  0  0  0  0  0  0  0  0  0  0  0
   33.0226  -20.9573   35.2435 C   0  0  0  0  0  0  0  0  0  0  0  0
   32.5939  -20.4740   36.6026 C   0  0  0  0  0  0  0  0  0  0  0  0
   33.5301  -20.8284   37.6507 N   0  0  0  0  0  0  0  0  0  0  0  0
   34.0584  -22.1399   37.3689 C   0  0  0  0  0  0  0  0  0  0  0  0
   35.5417  -22.1021   37.4950 C   0  0  0  0  0  0  0  0  0  0  0  0
   35.8989  -20.6536   37.6695 C   0  0  0  0  0  0  0  0  0  0  0  0
   36.5311  -20.4617   38.8859 F   0  0  0  0  0  0  0  0  0  0  0  0
   34.6161  -19.8883   37.5943 C   0  0  0  0  0  0  0  0  0  0  0  0
 16 17  1  0  0  0
 17  1  1  0  0  0
  1  2  2  0  0  0
  2  3  1  0  0  0
  3  4  2  0  0  0
  4  5  1  0  0  0
  5  6  2  0  0  0
  6 18  1  0  0  0
 18 19  1  0  0  0
 19 20  1  0  0  0
 20 21  1  0  0  0
 21 22  1  0  0  0
 22 23  1  0  0  0
 23 24  1  0  0  0
 24 25  1  0  0  0
 25 26  1  0  0  0
 25 27  1  0  0  0
  4  7  1  0  0  0
  7  8  2  0  0  0
  8  9  1  0  0  0
  8 10  1  0  0  0
 10 11  1  0  0  0
 11 12  1  0  0  0
 12 13  1  0  0  0
  6  1  1  0  0  0
 27 22  1  0  0  0
 13 10  1  0  0  0
 10  3  1  0  0  0
  9 14  1  0  0  0
  9 15  1  0  0  0
M  END
> <minimizedAffinity>
-6.44936

> <CNNscore>
0.3912004232

> <CNNaffinity>
5.2571096420

> <CNN_VS>
2.0565834045

> <CNNaffinity_variance>
0.2734347880

$$$$
[H]c1c(-c2nc3c([H])c(OC([H])([H])C([H])([H])C([H])([H])N4C([H])([H])C([H])([H])C([H])([H])C4([H])[H])c(OC([H])([H])[H])c([H])c3c(N([H])C3([H])C([H])([H])C4(C([H])([H])C([H])([H])N(C([H])([H])[H])C([H])([H])C4([H])[H])C3([H])[H])c2[H])oc(C([H])([H])[H])c1[H]


 39 44  0  0  0  0  0  0  0  0999 V2000
   36.1419  -13.9262   36.7152 C   0  0  0  0  0  0  0  0  0  0  0  0
   36.5880  -15.2130   36.3900 C   0  0  0  0  0  0  0  0  0  0  0  0
   35.7130  -16.2258   36.0618 C   0  0  0  0  0  0  0  0  0  0  0  0
   36.1105  -17.5148   35.7342 C   0  0  0  0  0  0  0  0  0  0  0  0
   35.1546  -18.4807   35.4152 C   0  0  0  0  0  0  0  0  0  0  0  0
   33.8145  -18.1795   35.4188 C   0  0  0  0  0  0  0  0  0  0  0  0
   33.4671  -16.9273   35.7393 N   0  0  0  0  0  0  0  0  0  0  0  0
   34.3402  -15.9553   36.0549 C   0  0  0  0  0  0  0  0  0  0  0  0
   33.9200  -14.6791   36.3789 C   0  0  0  0  0  0  0  0  0  0  0  0
   34.7919  -13.6624   36.7079 C   0  0  0  0  0  0  0  0  0  0  0  0
   32.7969  -19.1977   35.0825 C   0  0  0  0  0  0  0  0  0  0  0  0
   32.8824  -20.2154   34.1830 C   0  0  0  0  0  0  0  0  0  0  0  0
   31.6718  -20.8856   34.2380 C   0  0  0  0  0  0  0  0  0  0  0  0
   30.9136  -20.2379   35.1701 C   0  0  0  0  0  0  0  0  0  0  0  0
   29.5248  -20.5760   35.5955 C   0  0  0  0  0  0  0  0  0  0  0  0
   31.6175  -19.2590   35.6335 O   0  0  0  0  0  0  0  0  0  0  0  0
   38.3679  -13.2552   37.5047 C   0  0  0  0  0  0  0  0  0  0  0  0
   37.0694  -12.9437   37.0382 O   0  0  0  0  0  0  0  0  0  0  0  0
   37.4890  -17.8229   35.7156 N   0  0  0  0  0  0  0  0  0  0  0  0
   38.1103  -17.4608   34.9818 H   0  0  0  0  0  0  0  0  0  0  0  0
   38.1035  -18.6649   36.7183 C   0  0  0  0  0  0  0  0  0  0  0  0
   39.5723  -18.8801   36.4603 C   0  0  0  0  0  0  0  0  0  0  0  0
   39.2512  -20.3393   36.1397 C   0  0  0  0  0  0  0  0  0  0  0  0
   37.8195  -20.1388   36.5273 C   0  0  0  0  0  0  0  0  0  0  0  0
   40.0067  -21.3145   36.9867 C   0  0  0  0  0  0  0  0  0  0  0  0
   40.9101  -22.2098   36.1910 C   0  0  0  0  0  0  0  0  0  0  0  0
   40.2373  -22.8969   35.1244 N   0  0  0  0  0  0  0  0  0  0  0  0
   41.2599  -23.3118   34.1652 C   0  0  0  0  0  0  0  0  0  0  0  0
   39.2570  -22.1014   34.4402 C   0  0  0  0  0  0  0  0  0  0  0  0
   39.4984  -20.6464   34.6884 C   0  0  0  0  0  0  0  0  0  0  0  0
   34.3363  -12.4081   37.0238 O   0  0  0  0  0  0  0  0  0  0  0  0
   33.5574  -12.0982   38.1399 C   0  0  0  0  0  0  0  0  0  0  0  0
   32.3990  -11.2192   37.6494 C   0  0  0  0  0  0  0  0  0  0  0  0
   31.3596  -12.1232   36.9865 C   0  0  0  0  0  0  0  0  0  0  0  0
   30.0773  -11.7807   37.5658 N   0  0  0  0  0  0  0  0  0  0  0  0
   29.9871  -10.3667   37.8786 C   0  0  0  0  0  0  0  0  0  0  0  0
   28.6351  -10.3256   38.6000 C   0  0  0  0  0  0  0  0  0  0  0  0
   28.6032  -11.6606   39.3294 C   0  0  0  0  0  0  0  0  0  0  0  0
   29.8492  -12.3890   38.8436 C   0  0  0  0  0  0  0  0  0  0  0  0
 17 18  1  0  0  0
 18  1  1  0  0  0
  1  2  2  0  0  0
  2  3  1  0  0  0
  3  4  2  0  0  0
  4 19  1  0  0  0
 19 21  1  0  0  0
 21 22  1  0  0  0
 22 23  1  0  0  0
 23 24  1  0  0  0
 23 25  1  0  0  0
 25 26  1  0  0  0
 26 27  1  0  0  0
 27 28  1  0  0  0
 27 29  1  0  0  0
 29 30  1  0  0  0
  4  5  1  0  0  0
  5  6  2  0  0  0
  6  7  1  0  0  0
  7  8  2  0  0  0
  8  9  1  0  0  0
  9 10  2  0  0  0
 10 31  1  0  0  0
 31 32  1  0  0  0
 32 33  1  0  0  0
 33 34  1  0  0  0
 34 35  1  0  0  0
 35 36  1  0  0  0
 36 37  1  0  0  0
 37 38  1  0  0  0
 38 39  1  0  0  0
  6 11  1  0  0  0
 11 12  2  0  0  0
 12 13  1  0  0  0
 13 14  2  0  0  0
 14 15  1  0  0  0
 14 16  1  0  0  0
 10  1  1  0  0  0
 39 35  1  0  0  0
 16 11  1  0  0  0
  8  3  1  0  0  0
 24 21  1  0  0  0
 30 23  1  0  0  0
 19 20  1  0  0  0
M  END
> <minimizedAffinity>
-8.69722

> <CNNscore>
0.6867694259

> <CNNaffinity>
7.3786048889

> <CNN_VS>
5.0674004555

> <CNNaffinity_variance>
0.0296622273

$$$$
[H]c1c(-c2nc3c([H])c(OC([H])([H])C([H])([H])C([H])([H])N4C([H])([H])C([H])([H])C([H])([H])C4([H])[H])c(OC([H])([H])[H])c([H])c3c(N([H])C3([H])C([H])([H])C4(C([H])([H])C([H])([H])N(C([H])([H])[H])C([H])([H])C4([H])[H])C3([H])[H])c2[H])oc(C([H])([H])[H])c1[H]


 39 44  0  0  0  0  0  0  0  0999 V2000
   36.0436  -13.9107   36.6346 C   0  0  0  0  0  0  0  0  0  0  0  0
   36.5109  -15.2213   36.4775 C   0  0  0  0  0  0  0  0  0  0  0  0
   35.6662  -16.2622   36.1578 C   0  0  0  0  0  0  0  0  0  0  0  0
   36.0853  -17.5752   35.9935 C   0  0  0  0  0  0  0  0  0  0  0  0
   35.1595  -18.5687   35.6704 C   0  0  0  0  0  0  0  0  0  0  0  0
   33.8281  -18.2714   35.5100 C   0  0  0  0  0  0  0  0  0  0  0  0
   33.4594  -16.9954   35.6757 N   0  0  0  0  0  0  0  0  0  0  0  0
   34.3031  -15.9964   35.9865 C   0  0  0  0  0  0  0  0  0  0  0  0
   33.8617  -14.6964   36.1461 C   0  0  0  0  0  0  0  0  0  0  0  0
   34.7033  -13.6517   36.4658 C   0  0  0  0  0  0  0  0  0  0  0  0
   32.8423  -19.3186   35.1684 C   0  0  0  0  0  0  0  0  0  0  0  0
   32.9686  -20.3434   34.2818 C   0  0  0  0  0  0  0  0  0  0  0  0
   31.7745  -21.0435   34.3243 C   0  0  0  0  0  0  0  0  0  0  0  0
   30.9847  -20.4053   35.2364 C   0  0  0  0  0  0  0  0  0  0  0  0
   29.5979  -20.7740   35.6426 C   0  0  0  0  0  0  0  0  0  0  0  0
   31.6558  -19.4039   35.7005 O   0  0  0  0  0  0  0  0  0  0  0  0
   38.2355  -13.1719   37.4584 C   0  0  0  0  0  0  0  0  0  0  0  0
   36.9410  -12.9004   36.9573 O   0  0  0  0  0  0  0  0  0  0  0  0
   37.4562  -17.8808   36.1437 N   0  0  0  0  0  0  0  0  0  0  0  0
   38.1342  -17.1716   36.4490 H   0  0  0  0  0  0  0  0  0  0  0  0
   37.9854  -19.1995   35.8738 C   0  0  0  0  0  0  0  0  0  0  0  0
   38.7756  -19.7458   37.0346 C   0  0  0  0  0  0  0  0  0  0  0  0
   40.0344  -19.6040   36.1799 C   0  0  0  0  0  0  0  0  0  0  0  0
   39.2180  -19.1888   34.9962 C   0  0  0  0  0  0  0  0  0  0  0  0
   40.7872  -20.8863   36.0126 C   0  0  0  0  0  0  0  0  0  0  0  0
   42.1756  -20.8327   36.5786 C   0  0  0  0  0  0  0  0  0  0  0  0
   42.9530  -19.7329   36.0801 N   0  0  0  0  0  0  0  0  0  0  0  0
   44.0385  -19.5045   37.0327 C   0  0  0  0  0  0  0  0  0  0  0  0
   42.2112  -18.5135   35.9231 C   0  0  0  0  0  0  0  0  0  0  0  0
   40.9573  -18.5555   36.7374 C   0  0  0  0  0  0  0  0  0  0  0  0
   34.2273  -12.3743   36.6158 O   0  0  0  0  0  0  0  0  0  0  0  0
   33.7523  -11.8336   37.8118 C   0  0  0  0  0  0  0  0  0  0  0  0
   32.3362  -12.3859   38.0235 C   0  0  0  0  0  0  0  0  0  0  0  0
   31.3463  -11.4376   37.3468 C   0  0  0  0  0  0  0  0  0  0  0  0
   30.0194  -11.9301   37.6530 N   0  0  0  0  0  0  0  0  0  0  0  0
   29.0400  -10.8598   37.6819 C   0  0  0  0  0  0  0  0  0  0  0  0
   27.8047  -11.6243   38.1712 C   0  0  0  0  0  0  0  0  0  0  0  0
   28.4009  -12.6524   39.1214 C   0  0  0  0  0  0  0  0  0  0  0  0
   29.9066  -12.4800   38.9720 C   0  0  0  0  0  0  0  0  0  0  0  0
 17 18  1  0  0  0
 18  1  1  0  0  0
  1  2  2  0  0  0
  2  3  1  0  0  0
  3  4  2  0  0  0
  4 19  1  0  0  0
 19 21  1  0  0  0
 21 22  1  0  0  0
 22 23  1  0  0  0
 23 24  1  0  0  0
 23 25  1  0  0  0
 25 26  1  0  0  0
 26 27  1  0  0  0
 27 28  1  0  0  0
 27 29  1  0  0  0
 29 30  1  0  0  0
  4  5  1  0  0  0
  5  6  2  0  0  0
  6  7  1  0  0  0
  7  8  2  0  0  0
  8  9  1  0  0  0
  9 10  2  0  0  0
 10 31  1  0  0  0
 31 32  1  0  0  0
 32 33  1  0  0  0
 33 34  1  0  0  0
 34 35  1  0  0  0
 35 36  1  0  0  0
 36 37  1  0  0  0
 37 38  1  0  0  0
 38 39  1  0  0  0
  6 11  1  0  0  0
 11 12  2  0  0  0
 12 13  1  0  0  0
 13 14  2  0  0  0
 14 15  1  0  0  0
 14 16  1  0  0  0
 10  1  1  0  0  0
 39 35  1  0  0  0
 16 11  1  0  0  0
  8  3  1  0  0  0
 24 21  1  0  0  0
 30 23  1  0  0  0
 19 20  1  0  0  0
M  END
> <minimizedAffinity>
-9.13627

> <CNNscore>
0.6715759635

> <CNNaffinity>
7.3886795044

> <CNN_VS>
4.9620594978

> <CNNaffinity_variance>
0.0522410646

$$$$
[H]c1c(-c2nc3c([H])c(OC([H])([H])C([H])([H])C([H])([H])N4C([H])([H])C([H])([H])C([H])([H])C4([H])[H])c(OC([H])([H])[H])c([H])c3c(N([H])C3([H])C([H])([H])C4(C([H])([H])C([H])([H])N(C([H])([H])[H])C([H])([H])C4([H])[H])C3([H])[H])c2[H])oc(C([H])([H])[H])c1[H]


 39 44  0  0  0  0  0  0  0  0999 V2000
   36.1722  -14.1138   36.5204 C   0  0  0  0  0  0  0  0  0  0  0  0
   36.5781  -15.3567   36.0193 C   0  0  0  0  0  0  0  0  0  0  0  0
   35.6775  -16.3678   35.7630 C   0  0  0  0  0  0  0  0  0  0  0  0
   36.0352  -17.6141   35.2676 C   0  0  0  0  0  0  0  0  0  0  0  0
   35.0557  -18.5819   35.0380 C   0  0  0  0  0  0  0  0  0  0  0  0
   33.7312  -18.3242   35.2948 C   0  0  0  0  0  0  0  0  0  0  0  0
   33.4223  -17.1123   35.7717 N   0  0  0  0  0  0  0  0  0  0  0  0
   34.3195  -16.1409   36.0126 C   0  0  0  0  0  0  0  0  0  0  0  0
   33.9391  -14.9077   36.5072 C   0  0  0  0  0  0  0  0  0  0  0  0
   34.8367  -13.8928   36.7651 C   0  0  0  0  0  0  0  0  0  0  0  0
   32.6889  -19.3445   35.0544 C   0  0  0  0  0  0  0  0  0  0  0  0
   32.7537  -20.4515   34.2654 C   0  0  0  0  0  0  0  0  0  0  0  0
   31.5249  -21.0804   34.3764 C   0  0  0  0  0  0  0  0  0  0  0  0
   30.7774  -20.3203   35.2288 C   0  0  0  0  0  0  0  0  0  0  0  0
   29.3766  -20.5761   35.6721 C   0  0  0  0  0  0  0  0  0  0  0  0
   31.5041  -19.3176   35.5964 O   0  0  0  0  0  0  0  0  0  0  0  0
   38.1997  -13.3242   37.6582 C   0  0  0  0  0  0  0  0  0  0  0  0
   37.1241  -13.1307   36.7602 O   0  0  0  0  0  0  0  0  0  0  0  0
   37.3950  -17.8764   34.9890 N   0  0  0  0  0  0  0  0  0  0  0  0
   37.8079  -17.6560   34.0743 H   0  0  0  0  0  0  0  0  0  0  0  0
   38.2803  -18.4715   35.9656 C   0  0  0  0  0  0  0  0  0  0  0  0
   38.5315  -19.9319   35.6929 C   0  0  0  0  0  0  0  0  0  0  0  0
   37.7279  -20.2541   36.9520 C   0  0  0  0  0  0  0  0  0  0  0  0
   37.6014  -18.7987   37.2777 C   0  0  0  0  0  0  0  0  0  0  0  0
   38.4901  -21.0639   37.9531 C   0  0  0  0  0  0  0  0  0  0  0  0
   37.8689  -22.4025   38.2240 C   0  0  0  0  0  0  0  0  0  0  0  0
   36.4853  -22.3238   38.6004 N   0  0  0  0  0  0  0  0  0  0  0  0
   35.8946  -23.6380   38.3514 C   0  0  0  0  0  0  0  0  0  0  0  0
   35.7357  -21.3353   37.8771 C   0  0  0  0  0  0  0  0  0  0  0  0
   36.4447  -20.9620   36.6142 C   0  0  0  0  0  0  0  0  0  0  0  0
   34.4205  -12.6819   37.2561 O   0  0  0  0  0  0  0  0  0  0  0  0
   33.4152  -12.5085   38.2089 C   0  0  0  0  0  0  0  0  0  0  0  0
   32.4558  -11.4434   37.6611 C   0  0  0  0  0  0  0  0  0  0  0  0
   31.3445  -12.1528   36.8872 C   0  0  0  0  0  0  0  0  0  0  0  0
   30.0926  -11.7639   37.5024 N   0  0  0  0  0  0  0  0  0  0  0  0
   30.0836  -10.3591   37.8660 C   0  0  0  0  0  0  0  0  0  0  0  0
   28.7484  -10.2723   38.6140 C   0  0  0  0  0  0  0  0  0  0  0  0
   28.6576  -11.6291   39.2969 C   0  0  0  0  0  0  0  0  0  0  0  0
   29.8542  -12.4045   38.7624 C   0  0  0  0  0  0  0  0  0  0  0  0
 17 18  1  0  0  0
 18  1  1  0  0  0
  1  2  2  0  0  0
  2  3  1  0  0  0
  3  4  2  0  0  0
  4 19  1  0  0  0
 19 21  1  0  0  0
 21 22  1  0  0  0
 22 23  1  0  0  0
 23 24  1  0  0  0
 23 25  1  0  0  0
 25 26  1  0  0  0
 26 27  1  0  0  0
 27 28  1  0  0  0
 27 29  1  0  0  0
 29 30  1  0  0  0
  4  5  1  0  0  0
  5  6  2  0  0  0
  6  7  1  0  0  0
  7  8  2  0  0  0
  8  9  1  0  0  0
  9 10  2  0  0  0
 10 31  1  0  0  0
 31 32  1  0  0  0
 32 33  1  0  0  0
 33 34  1  0  0  0
 34 35  1  0  0  0
 35 36  1  0  0  0
 36 37  1  0  0  0
 37 38  1  0  0  0
 38 39  1  0  0  0
  6 11  1  0  0  0
 11 12  2  0  0  0
 12 13  1  0  0  0
 13 14  2  0  0  0
 14 15  1  0  0  0
 14 16  1  0  0  0
 10  1  1  0  0  0
 39 35  1  0  0  0
 16 11  1  0  0  0
  8  3  1  0  0  0
 24 21  1  0  0  0
 30 23  1  0  0  0
 19 20  1  0  0  0
M  END
> <minimizedAffinity>
-8.04989

> <CNNscore>
0.5959835649

> <CNNaffinity>
7.3282866478

> <CNN_VS>
4.3675384521

> <CNNaffinity_variance>
0.0653310567

$$$$
[H]c1c(-c2nc3c([H])c(OC([H])([H])C([H])([H])C([H])([H])N4C([H])([H])C([H])([H])C([H])([H])C4([H])[H])c(OC([H])([H])[H])c([H])c3c(N([H])C3([H])C([H])([H])C4(C([H])([H])C([H])([H])N(C([H])([H])[H])C([H])([H])C4([H])[H])C3([H])[H])c2[H])oc(C([H])([H])[H])c1[H]


 39 44  0  0  0  0  0  0  0  0999 V2000
   35.9278  -14.4078   36.2328 C   0  0  0  0  0  0  0  0  0  0  0  0
   36.5687  -15.6147   35.9272 C   0  0  0  0  0  0  0  0  0  0  0  0
   35.8647  -16.7815   35.7219 C   0  0  0  0  0  0  0  0  0  0  0  0
   36.4581  -17.9990   35.4182 C   0  0  0  0  0  0  0  0  0  0  0  0
   35.6671  -19.1332   35.2272 C   0  0  0  0  0  0  0  0  0  0  0  0
   34.2992  -19.0693   35.3347 C   0  0  0  0  0  0  0  0  0  0  0  0
   33.7610  -17.8796   35.6286 N   0  0  0  0  0  0  0  0  0  0  0  0
   34.4694  -16.7540   35.8232 C   0  0  0  0  0  0  0  0  0  0  0  0
   33.8557  -15.5532   36.1259 C   0  0  0  0  0  0  0  0  0  0  0  0
   34.5561  -14.3831   36.3320 C   0  0  0  0  0  0  0  0  0  0  0  0
   33.4556  -20.2666   35.1341 C   0  0  0  0  0  0  0  0  0  0  0  0
   32.5854  -20.5291   34.1213 C   0  0  0  0  0  0  0  0  0  0  0  0
   32.0434  -21.7753   34.3878 C   0  0  0  0  0  0  0  0  0  0  0  0
   32.6145  -22.2044   35.5509 C   0  0  0  0  0  0  0  0  0  0  0  0
   32.3602  -23.4922   36.2587 C   0  0  0  0  0  0  0  0  0  0  0  0
   33.4322  -21.2857   35.9459 O   0  0  0  0  0  0  0  0  0  0  0  0
   37.5610  -13.1153   37.5331 C   0  0  0  0  0  0  0  0  0  0  0  0
   36.6884  -13.2620   36.4297 O   0  0  0  0  0  0  0  0  0  0  0  0
   37.8636  -18.0640   35.2929 N   0  0  0  0  0  0  0  0  0  0  0  0
   38.4674  -17.2974   35.6146 H   0  0  0  0  0  0  0  0  0  0  0  0
   38.5324  -19.2029   34.7036 C   0  0  0  0  0  0  0  0  0  0  0  0
   39.2321  -20.0500   35.7347 C   0  0  0  0  0  0  0  0  0  0  0  0
   40.5616  -19.5857   35.1415 C   0  0  0  0  0  0  0  0  0  0  0  0
   39.8499  -18.8568   34.0449 C   0  0  0  0  0  0  0  0  0  0  0  0
   41.4371  -20.7120   34.6899 C   0  0  0  0  0  0  0  0  0  0  0  0
   42.7434  -20.7742   35.4252 C   0  0  0  0  0  0  0  0  0  0  0  0
   43.4731  -19.5376   35.3979 N   0  0  0  0  0  0  0  0  0  0  0  0
   44.4209  -19.5708   36.5107 C   0  0  0  0  0  0  0  0  0  0  0  0
   42.6502  -18.3678   35.5260 C   0  0  0  0  0  0  0  0  0  0  0  0
   41.3215  -18.7246   36.1126 C   0  0  0  0  0  0  0  0  0  0  0  0
   33.9110  -13.2103   36.6307 O   0  0  0  0  0  0  0  0  0  0  0  0
   32.5305  -13.0746   36.7860 C   0  0  0  0  0  0  0  0  0  0  0  0
   32.2928  -11.7866   37.5858 C   0  0  0  0  0  0  0  0  0  0  0  0
   33.6529  -11.1825   37.9357 C   0  0  0  0  0  0  0  0  0  0  0  0
   33.5723   -9.7684   37.6341 N   0  0  0  0  0  0  0  0  0  0  0  0
   32.2597   -9.3960   37.1401 C   0  0  0  0  0  0  0  0  0  0  0  0
   32.5075   -7.9305   36.7650 C   0  0  0  0  0  0  0  0  0  0  0  0
   33.9485   -7.9482   36.2766 C   0  0  0  0  0  0  0  0  0  0  0  0
   34.4271   -9.3666   36.5559 C   0  0  0  0  0  0  0  0  0  0  0  0
 17 18  1  0  0  0
 18  1  1  0  0  0
  1  2  2  0  0  0
  2  3  1  0  0  0
  3  4  2  0  0  0
  4 19  1  0  0  0
 19 21  1  0  0  0
 21 22  1  0  0  0
 22 23  1  0  0  0
 23 24  1  0  0  0
 23 25  1  0  0  0
 25 26  1  0  0  0
 26 27  1  0  0  0
 27 28  1  0  0  0
 27 29  1  0  0  0
 29 30  1  0  0  0
  4  5  1  0  0  0
  5  6  2  0  0  0
  6  7  1  0  0  0
  7  8  2  0  0  0
  8  9  1  0  0  0
  9 10  2  0  0  0
 10 31  1  0  0  0
 31 32  1  0  0  0
 32 33  1  0  0  0
 33 34  1  0  0  0
 34 35  1  0  0  0
 35 36  1  0  0  0
 36 37  1  0  0  0
 37 38  1  0  0  0
 38 39  1  0  0  0
  6 11  1  0  0  0
 11 12  2  0  0  0
 12 13  1  0  0  0
 13 14  2  0  0  0
 14 15  1  0  0  0
 14 16  1  0  0  0
 10  1  1  0  0  0
 39 35  1  0  0  0
 16 11  1  0  0  0
  8  3  1  0  0  0
 24 21  1  0  0  0
 30 23  1  0  0  0
 19 20  1  0  0  0
M  END
> <minimizedAffinity>
-7.91843

> <CNNscore>
0.4643378258

> <CNNaffinity>
7.0831465721

> <CNN_VS>
3.2889728546

> <CNNaffinity_variance>
0.0348479077

$$$$
[H]c1c(-c2nc3c([H])c(OC([H])([H])C([H])([H])C([H])([H])N4C([H])([H])C([H])([H])C([H])([H])C4([H])[H])c(OC([H])([H])[H])c([H])c3c(N([H])C3([H])C([H])([H])C4(C([H])([H])C([H])([H])N(C([H])([H])[H])C([H])([H])C4([H])[H])C3([H])[H])c2[H])oc(C([H])([H])[H])c1[H]


 39 44  0  0  0  0  0  0  0  0999 V2000
   36.3303  -14.8797   37.2963 C   0  0  0  0  0  0  0  0  0  0  0  0
   36.6894  -16.2329   37.3161 C   0  0  0  0  0  0  0  0  0  0  0  0
   35.8533  -17.2154   36.8318 C   0  0  0  0  0  0  0  0  0  0  0  0
   36.1676  -18.5674   36.8325 C   0  0  0  0  0  0  0  0  0  0  0  0
   35.2590  -19.4961   36.3221 C   0  0  0  0  0  0  0  0  0  0  0  0
   34.0472  -19.0961   35.8139 C   0  0  0  0  0  0  0  0  0  0  0  0
   33.7772  -17.7852   35.8290 N   0  0  0  0  0  0  0  0  0  0  0  0
   34.6106  -16.8448   36.3062 C   0  0  0  0  0  0  0  0  0  0  0  0
   34.2746  -15.5042   36.2958 C   0  0  0  0  0  0  0  0  0  0  0  0
   35.1081  -14.5175   36.7793 C   0  0  0  0  0  0  0  0  0  0  0  0
   33.0801  -20.0742   35.2724 C   0  0  0  0  0  0  0  0  0  0  0  0
   33.1539  -20.7860   34.1148 C   0  0  0  0  0  0  0  0  0  0  0  0
   32.0070  -21.5602   34.0606 C   0  0  0  0  0  0  0  0  0  0  0  0
   31.2959  -21.2769   35.1907 C   0  0  0  0  0  0  0  0  0  0  0  0
   29.9830  -21.8550   35.5984 C   0  0  0  0  0  0  0  0  0  0  0  0
   31.9667  -20.4026   35.8647 O   0  0  0  0  0  0  0  0  0  0  0  0
   38.1910  -13.3074   36.9891 C   0  0  0  0  0  0  0  0  0  0  0  0
   37.2133  -13.9318   37.7983 O   0  0  0  0  0  0  0  0  0  0  0  0
   37.4193  -18.9797   37.3412 N   0  0  0  0  0  0  0  0  0  0  0  0
   38.0469  -18.3224   37.8207 H   0  0  0  0  0  0  0  0  0  0  0  0
   37.8917  -20.3407   37.2144 C   0  0  0  0  0  0  0  0  0  0  0  0
   38.7229  -20.7686   38.3960 C   0  0  0  0  0  0  0  0  0  0  0  0
   39.9399  -20.7816   37.4719 C   0  0  0  0  0  0  0  0  0  0  0  0
   39.0771  -20.4856   36.2853 C   0  0  0  0  0  0  0  0  0  0  0  0
   40.6420  -22.1024   37.4316 C   0  0  0  0  0  0  0  0  0  0  0  0
   42.0587  -22.0317   37.9203 C   0  0  0  0  0  0  0  0  0  0  0  0
   42.8439  -21.0324   37.2515 N   0  0  0  0  0  0  0  0  0  0  0  0
   43.9837  -20.7291   38.1157 C   0  0  0  0  0  0  0  0  0  0  0  0
   42.1340  -19.8146   36.9778 C   0  0  0  0  0  0  0  0  0  0  0  0
   40.9231  -19.7079   37.8491 C   0  0  0  0  0  0  0  0  0  0  0  0
   34.7391  -13.1970   36.7517 O   0  0  0  0  0  0  0  0  0  0  0  0
   34.0632  -12.5343   37.7776 C   0  0  0  0  0  0  0  0  0  0  0  0
   32.5623  -12.6719   37.4890 C   0  0  0  0  0  0  0  0  0  0  0  0
   31.8564  -11.4240   38.0198 C   0  0  0  0  0  0  0  0  0  0  0  0
   32.3147  -10.3104   37.2153 N   0  0  0  0  0  0  0  0  0  0  0  0
   33.6137   -9.8304   37.6486 C   0  0  0  0  0  0  0  0  0  0  0  0
   33.7672   -8.5940   36.7555 C   0  0  0  0  0  0  0  0  0  0  0  0
   32.3390   -8.0807   36.6448 C   0  0  0  0  0  0  0  0  0  0  0  0
   31.4992   -9.1389   37.3476 C   0  0  0  0  0  0  0  0  0  0  0  0
 17 18  1  0  0  0
 18  1  1  0  0  0
  1  2  2  0  0  0
  2  3  1  0  0  0
  3  4  2  0  0  0
  4 19  1  0  0  0
 19 21  1  0  0  0
 21 22  1  0  0  0
 22 23  1  0  0  0
 23 24  1  0  0  0
 23 25  1  0  0  0
 25 26  1  0  0  0
 26 27  1  0  0  0
 27 28  1  0  0  0
 27 29  1  0  0  0
 29 30  1  0  0  0
  4  5  1  0  0  0
  5  6  2  0  0  0
  6  7  1  0  0  0
  7  8  2  0  0  0
  8  9  1  0  0  0
  9 10  2  0  0  0
 10 31  1  0  0  0
 31 32  1  0  0  0
 32 33  1  0  0  0
 33 34  1  0  0  0
 34 35  1  0  0  0
 35 36  1  0  0  0
 36 37  1  0  0  0
 37 38  1  0  0  0
 38 39  1  0  0  0
  6 11  1  0  0  0
 11 12  2  0  0  0
 12 13  1  0  0  0
 13 14  2  0  0  0
 14 15  1  0  0  0
 14 16  1  0  0  0
 10  1  1  0  0  0
 39 35  1  0  0  0
 16 11  1  0  0  0
  8  3  1  0  0  0
 24 21  1  0  0  0
 30 23  1  0  0  0
 19 20  1  0  0  0
M  END
> <minimizedAffinity>
-7.15502

> <CNNscore>
0.4444696903

> <CNNaffinity>
6.9434356689

> <CNN_VS>
3.0861465931

> <CNNaffinity_variance>
0.0484687872

$$$$
[H]c1c(-c2nc3c([H])c(OC([H])([H])C([H])([H])C([H])([H])N4C([H])([H])C([H])([H])C([H])([H])C4([H])[H])c(OC([H])([H])[H])c([H])c3c(N([H])C3([H])C([H])([H])C4(C([H])([H])C([H])([H])N(C([H])([H])[H])C([H])([H])C4([H])[H])C3([H])[H])c2[H])oc(C([H])([H])[H])c1[H]


 39 44  0  0  0  0  0  0  0  0999 V2000
   36.0148  -14.3687   36.5951 C   0  0  0  0  0  0  0  0  0  0  0  0
   36.6592  -15.5779   36.3064 C   0  0  0  0  0  0  0  0  0  0  0  0
   35.9564  -16.7192   35.9862 C   0  0  0  0  0  0  0  0  0  0  0  0
   36.5532  -17.9380   35.6943 C   0  0  0  0  0  0  0  0  0  0  0  0
   35.7631  -19.0453   35.3810 C   0  0  0  0  0  0  0  0  0  0  0  0
   34.3928  -18.9535   35.3554 C   0  0  0  0  0  0  0  0  0  0  0  0
   33.8514  -17.7634   35.6419 N   0  0  0  0  0  0  0  0  0  0  0  0
   34.5587  -16.6629   35.9503 C   0  0  0  0  0  0  0  0  0  0  0  0
   33.9416  -15.4603   36.2385 C   0  0  0  0  0  0  0  0  0  0  0  0
   34.6407  -14.3155   36.5592 C   0  0  0  0  0  0  0  0  0  0  0  0
   33.5501  -20.1223   35.0249 C   0  0  0  0  0  0  0  0  0  0  0  0
   32.8026  -20.3386   33.9084 C   0  0  0  0  0  0  0  0  0  0  0  0
   32.2014  -21.5747   34.0766 C   0  0  0  0  0  0  0  0  0  0  0  0
   32.6166  -22.0446   35.2890 C   0  0  0  0  0  0  0  0  0  0  0  0
   32.2464  -23.3398   35.9288 C   0  0  0  0  0  0  0  0  0  0  0  0
   33.4031  -21.1577   35.8024 O   0  0  0  0  0  0  0  0  0  0  0  0
   38.0307  -13.3462   37.5538 C   0  0  0  0  0  0  0  0  0  0  0  0
   36.7742  -13.2492   36.9116 O   0  0  0  0  0  0  0  0  0  0  0  0
   37.9626  -18.0311   35.7059 N   0  0  0  0  0  0  0  0  0  0  0  0
   38.5549  -17.1983   35.8124 H   0  0  0  0  0  0  0  0  0  0  0  0
   38.6522  -19.2945   35.5642 C   0  0  0  0  0  0  0  0  0  0  0  0
   37.7148  -20.4702   35.6619 C   0  0  0  0  0  0  0  0  0  0  0  0
   38.3743  -20.8215   36.9949 C   0  0  0  0  0  0  0  0  0  0  0  0
   39.3819  -19.7292   36.8164 C   0  0  0  0  0  0  0  0  0  0  0  0
   38.9403  -22.2062   37.0317 C   0  0  0  0  0  0  0  0  0  0  0  0
   38.3004  -23.0768   38.0727 C   0  0  0  0  0  0  0  0  0  0  0  0
   38.3166  -22.4997   39.3876 N   0  0  0  0  0  0  0  0  0  0  0  0
   37.2746  -23.1683   40.1655 C   0  0  0  0  0  0  0  0  0  0  0  0
   38.0744  -21.0844   39.4103 C   0  0  0  0  0  0  0  0  0  0  0  0
   37.4163  -20.6460   38.1409 C   0  0  0  0  0  0  0  0  0  0  0  0
   33.9922  -13.1401   36.8392 O   0  0  0  0  0  0  0  0  0  0  0  0
   33.4677  -12.7939   38.0856 C   0  0  0  0  0  0  0  0  0  0  0  0
   32.4948  -11.6294   37.8560 C   0  0  0  0  0  0  0  0  0  0  0  0
   33.2491  -10.3213   38.0948 C   0  0  0  0  0  0  0  0  0  0  0  0
   33.1944   -9.5748   36.8551 N   0  0  0  0  0  0  0  0  0  0  0  0
   34.2828   -8.6208   36.7514 C   0  0  0  0  0  0  0  0  0  0  0  0
   33.8917   -7.8894   35.4622 C   0  0  0  0  0  0  0  0  0  0  0  0
   32.3715   -7.8846   35.5271 C   0  0  0  0  0  0  0  0  0  0  0  0
   32.0406   -8.7309   36.7491 C   0  0  0  0  0  0  0  0  0  0  0  0
 17 18  1  0  0  0
 18  1  1  0  0  0
  1  2  2  0  0  0
  2  3  1  0  0  0
  3  4  2  0  0  0
  4 19  1  0  0  0
 19 21  1  0  0  0
 21 22  1  0  0  0
 22 23  1  0  0  0
 23 24  1  0  0  0
 23 25  1  0  0  0
 25 26  1  0  0  0
 26 27  1  0  0  0
 27 28  1  0  0  0
 27 29  1  0  0  0
 29 30  1  0  0  0
  4  5  1  0  0  0
  5  6  2  0  0  0
  6  7  1  0  0  0
  7  8  2  0  0  0
  8  9  1  0  0  0
  9 10  2  0  0  0
 10 31  1  0  0  0
 31 32  1  0  0  0
 32 33  1  0  0  0
 33 34  1  0  0  0
 34 35  1  0  0  0
 35 36  1  0  0  0
 36 37  1  0  0  0
 37 38  1  0  0  0
 38 39  1  0  0  0
  6 11  1  0  0  0
 11 12  2  0  0  0
 12 13  1  0  0  0
 13 14  2  0  0  0
 14 15  1  0  0  0
 14 16  1  0  0  0
 10  1  1  0  0  0
 39 35  1  0  0  0
 16 11  1  0  0  0
  8  3  1  0  0  0
 24 21  1  0  0  0
 30 23  1  0  0  0
 19 20  1  0  0  0
M  END
> <minimizedAffinity>
-7.27420

> <CNNscore>
0.4403417706

> <CNNaffinity>
6.9531669617

> <CNN_VS>
3.0617699623

> <CNNaffinity_variance>
0.0451197401

$$$$
[H]c1c(-c2nc3c([H])c(OC([H])([H])C([H])([H])C([H])([H])N4C([H])([H])C([H])([H])C([H])([H])C4([H])[H])c(OC([H])([H])[H])c([H])c3c(N([H])C3([H])C([H])([H])C4(C([H])([H])C([H])([H])N(C([H])([H])[H])C([H])([H])C4([H])[H])C3([H])[H])c2[H])oc(C([H])([H])[H])c1[H]


 39 44  0  0  0  0  0  0  0  0999 V2000
   32.8849  -20.4450   34.8139 C   0  0  0  0  0  0  0  0  0  0  0  0
   34.1756  -19.9530   35.0435 C   0  0  0  0  0  0  0  0  0  0  0  0
   34.4050  -18.6332   35.3668 C   0  0  0  0  0  0  0  0  0  0  0  0
   35.6661  -18.1028   35.6016 C   0  0  0  0  0  0  0  0  0  0  0  0
   35.8069  -16.7517   35.9228 C   0  0  0  0  0  0  0  0  0  0  0  0
   34.7122  -15.9269   36.0124 C   0  0  0  0  0  0  0  0  0  0  0  0
   33.5119  -16.4717   35.7799 N   0  0  0  0  0  0  0  0  0  0  0  0
   33.3132  -17.7637   35.4671 C   0  0  0  0  0  0  0  0  0  0  0  0
   32.0475  -18.2686   35.2366 C   0  0  0  0  0  0  0  0  0  0  0  0
   31.8131  -19.5886   34.9129 C   0  0  0  0  0  0  0  0  0  0  0  0
   34.8541  -14.4951   36.3517 C   0  0  0  0  0  0  0  0  0  0  0  0
   35.9176  -13.6746   36.1329 C   0  0  0  0  0  0  0  0  0  0  0  0
   35.5591  -12.4327   36.6298 C   0  0  0  0  0  0  0  0  0  0  0  0
   34.2941  -12.5652   37.1251 C   0  0  0  0  0  0  0  0  0  0  0  0
   33.4629  -11.5079   37.7695 C   0  0  0  0  0  0  0  0  0  0  0  0
   33.9283  -13.7898   36.9378 O   0  0  0  0  0  0  0  0  0  0  0  0
   32.4246  -22.7663   35.4684 C   0  0  0  0  0  0  0  0  0  0  0  0
   32.7129  -21.7852   34.4911 O   0  0  0  0  0  0  0  0  0  0  0  0
   36.7920  -18.9523   35.5243 N   0  0  0  0  0  0  0  0  0  0  0  0
   36.8824  -19.7802   36.1261 H   0  0  0  0  0  0  0  0  0  0  0  0
   37.8802  -18.7070   34.6036 C   0  0  0  0  0  0  0  0  0  0  0  0
   38.0994  -19.8603   33.6591 C   0  0  0  0  0  0  0  0  0  0  0  0
   39.4206  -20.1323   34.3771 C   0  0  0  0  0  0  0  0  0  0  0  0
   39.2487  -18.9059   35.2177 C   0  0  0  0  0  0  0  0  0  0  0  0
   40.6073  -20.1151   33.4658 C   0  0  0  0  0  0  0  0  0  0  0  0
   41.3282  -21.4298   33.4122 C   0  0  0  0  0  0  0  0  0  0  0  0
   41.7038  -21.9277   34.7058 N   0  0  0  0  0  0  0  0  0  0  0  0
   41.9255  -23.3663   34.5671 C   0  0  0  0  0  0  0  0  0  0  0  0
   40.7193  -21.7080   35.7278 C   0  0  0  0  0  0  0  0  0  0  0  0
   39.3808  -21.4417   35.1159 C   0  0  0  0  0  0  0  0  0  0  0  0
   30.5417  -20.0524   34.6913 O   0  0  0  0  0  0  0  0  0  0  0  0
   29.4318  -19.7516   35.4827 C   0  0  0  0  0  0  0  0  0  0  0  0
   29.1864  -20.9634   36.3917 C   0  0  0  0  0  0  0  0  0  0  0  0
   28.6699  -22.1136   35.5271 C   0  0  0  0  0  0  0  0  0  0  0  0
   28.3149  -23.1886   36.4301 N   0  0  0  0  0  0  0  0  0  0  0  0
   27.2811  -24.0413   35.8736 C   0  0  0  0  0  0  0  0  0  0  0  0
   27.0027  -24.9598   37.0690 C   0  0  0  0  0  0  0  0  0  0  0  0
   27.1993  -24.0314   38.2584 C   0  0  0  0  0  0  0  0  0  0  0  0
   27.7097  -22.7333   37.6472 C   0  0  0  0  0  0  0  0  0  0  0  0
 17 18  1  0  0  0
 18  1  1  0  0  0
  1  2  2  0  0  0
  2  3  1  0  0  0
  3  4  2  0  0  0
  4 19  1  0  0  0
 19 21  1  0  0  0
 21 22  1  0  0  0
 22 23  1  0  0  0
 23 24  1  0  0  0
 23 25  1  0  0  0
 25 26  1  0  0  0
 26 27  1  0  0  0
 27 28  1  0  0  0
 27 29  1  0  0  0
 29 30  1  0  0  0
  4  5  1  0  0  0
  5  6  2  0  0  0
  6  7  1  0  0  0
  7  8  2  0  0  0
  8  9  1  0  0  0
  9 10  2  0  0  0
 10 31  1  0  0  0
 31 32  1  0  0  0
 32 33  1  0  0  0
 33 34  1  0  0  0
 34 35  1  0  0  0
 35 36  1  0  0  0
 36 37  1  0  0  0
 37 38  1  0  0  0
 38 39  1  0  0  0
  6 11  1  0  0  0
 11 12  2  0  0  0
 12 13  1  0  0  0
 13 14  2  0  0  0
 14 15  1  0  0  0
 14 16  1  0  0  0
 10  1  1  0  0  0
 39 35  1  0  0  0
 16 11  1  0  0  0
  8  3  1  0  0  0
 24 21  1  0  0  0
 30 23  1  0  0  0
 19 20  1  0  0  0
M  END
> <minimizedAffinity>
-6.90303

> <CNNscore>
0.3801445663

> <CNNaffinity>
6.3574795723

> <CNN_VS>
2.4167613983

> <CNNaffinity_variance>
0.1659500301

$$$$
[H]c1c(-c2nc3c([H])c(OC([H])([H])C([H])([H])C([H])([H])N4C([H])([H])C([H])([H])C([H])([H])C4([H])[H])c(OC([H])([H])[H])c([H])c3c(N([H])C3([H])C([H])([H])C4(C([H])([H])C([H])([H])N(C([H])([H])[H])C([H])([H])C4([H])[H])C3([H])[H])c2[H])oc(C([H])([H])[H])c1[H]


 39 44  0  0  0  0  0  0  0  0999 V2000
   37.7339  -19.6949   35.6220 C   0  0  0  0  0  0  0  0  0  0  0  0
   36.4447  -19.3171   35.2274 C   0  0  0  0  0  0  0  0  0  0  0  0
   35.9096  -18.0925   35.5640 C   0  0  0  0  0  0  0  0  0  0  0  0
   34.6373  -17.6774   35.1957 C   0  0  0  0  0  0  0  0  0  0  0  0
   34.1742  -16.4184   35.5818 C   0  0  0  0  0  0  0  0  0  0  0  0
   34.9594  -15.5726   36.3267 C   0  0  0  0  0  0  0  0  0  0  0  0
   36.1802  -16.0052   36.6640 N   0  0  0  0  0  0  0  0  0  0  0  0
   36.6809  -17.2049   36.3223 C   0  0  0  0  0  0  0  0  0  0  0  0
   37.9509  -17.5964   36.7020 C   0  0  0  0  0  0  0  0  0  0  0  0
   38.4905  -18.8207   36.3673 C   0  0  0  0  0  0  0  0  0  0  0  0
   34.4751  -14.2382   36.7394 C   0  0  0  0  0  0  0  0  0  0  0  0
   35.1694  -13.0698   36.8092 C   0  0  0  0  0  0  0  0  0  0  0  0
   34.2728  -12.1105   37.2490 C   0  0  0  0  0  0  0  0  0  0  0  0
   33.0788  -12.7486   37.4234 C   0  0  0  0  0  0  0  0  0  0  0  0
   31.7949  -12.1481   37.8871 C   0  0  0  0  0  0  0  0  0  0  0  0
   33.2512  -13.9903   37.1119 O   0  0  0  0  0  0  0  0  0  0  0  0
   38.9655  -21.1421   34.0671 C   0  0  0  0  0  0  0  0  0  0  0  0
   38.2222  -20.9423   35.2538 O   0  0  0  0  0  0  0  0  0  0  0  0
   33.8336  -18.5398   34.4173 N   0  0  0  0  0  0  0  0  0  0  0  0
   34.2376  -19.1298   33.6794 H   0  0  0  0  0  0  0  0  0  0  0  0
   32.4033  -18.6397   34.6071 C   0  0  0  0  0  0  0  0  0  0  0  0
   32.0459  -19.3138   35.9064 C   0  0  0  0  0  0  0  0  0  0  0  0
   31.5241  -20.4965   35.0916 C   0  0  0  0  0  0  0  0  0  0  0  0
   31.7641  -19.7574   33.8124 C   0  0  0  0  0  0  0  0  0  0  0  0
   30.0923  -20.8274   35.3735 C   0  0  0  0  0  0  0  0  0  0  0  0
   29.9056  -22.2064   35.9342 C   0  0  0  0  0  0  0  0  0  0  0  0
   30.5029  -23.2352   35.1297 N   0  0  0  0  0  0  0  0  0  0  0  0
   30.6874  -24.4033   35.9896 C   0  0  0  0  0  0  0  0  0  0  0  0
   31.7714  -22.8739   34.5620 C   0  0  0  0  0  0  0  0  0  0  0  0
   32.3686  -21.7223   35.3064 C   0  0  0  0  0  0  0  0  0  0  0  0
   39.7553  -19.1734   36.7630 O   0  0  0  0  0  0  0  0  0  0  0  0
   40.9319  -18.7792   36.1237 C   0  0  0  0  0  0  0  0  0  0  0  0
   42.0492  -18.8179   37.1751 C   0  0  0  0  0  0  0  0  0  0  0  0
   42.0276  -20.1913   37.8463 C   0  0  0  0  0  0  0  0  0  0  0  0
   42.5280  -20.0066   39.1926 N   0  0  0  0  0  0  0  0  0  0  0  0
   41.4770  -19.6035   40.1083 C   0  0  0  0  0  0  0  0  0  0  0  0
   42.2975  -19.3347   41.3749 C   0  0  0  0  0  0  0  0  0  0  0  0
   43.6016  -18.7817   40.8189 C   0  0  0  0  0  0  0  0  0  0  0  0
   43.4626  -18.9259   39.3093 C   0  0  0  0  0  0  0  0  0  0  0  0
 17 18  1  0  0  0
 18  1  1  0  0  0
  1  2  2  0  0  0
  2  3  1  0  0  0
  3  4  2  0  0  0
  4 19  1  0  0  0
 19 21  1  0  0  0
 21 22  1  0  0  0
 22 23  1  0  0  0
 23 24  1  0  0  0
 23 25  1  0  0  0
 25 26  1  0  0  0
 26 27  1  0  0  0
 27 28  1  0  0  0
 27 29  1  0  0  0
 29 30  1  0  0  0
  4  5  1  0  0  0
  5  6  2  0  0  0
  6  7  1  0  0  0
  7  8  2  0  0  0
  8  9  1  0  0  0
  9 10  2  0  0  0
 10 31  1  0  0  0
 31 32  1  0  0  0
 32 33  1  0  0  0
 33 34  1  0  0  0
 34 35  1  0  0  0
 35 36  1  0  0  0
 36 37  1  0  0  0
 37 38  1  0  0  0
 38 39  1  0  0  0
  6 11  1  0  0  0
 11 12  2  0  0  0
 12 13  1  0  0  0
 13 14  2  0  0  0
 14 15  1  0  0  0
 14 16  1  0  0  0
 10  1  1  0  0  0
 39 35  1  0  0  0
 16 11  1  0  0  0
  8  3  1  0  0  0
 24 21  1  0  0  0
 30 23  1  0  0  0
 19 20  1  0  0  0
M  END
> <minimizedAffinity>
-7.69330

> <CNNscore>
0.3282951713

> <CNNaffinity>
6.3960886002

> <CNN_VS>
2.0998051167

> <CNNaffinity_variance>
0.2393836528

$$$$
[H]c1c(-c2nc3c([H])c(OC([H])([H])C([H])([H])C([H])([H])N4C([H])([H])C([H])([H])C([H])([H])C4([H])[H])c(OC([H])([H])[H])c([H])c3c(N([H])C3([H])C([H])([H])C4(C([H])([H])C([H])([H])N(C([H])([H])[H])C([H])([H])C4([H])[H])C3([H])[H])c2[H])oc(C([H])([H])[H])c1[H]


 39 44  0  0  0  0  0  0  0  0999 V2000
   36.3621  -21.8148   37.5692 C   0  0  0  0  0  0  0  0  0  0  0  0
   37.2820  -20.8571   37.1251 C   0  0  0  0  0  0  0  0  0  0  0  0
   36.9363  -19.5321   36.9704 C   0  0  0  0  0  0  0  0  0  0  0  0
   37.8143  -18.5503   36.5325 C   0  0  0  0  0  0  0  0  0  0  0  0
   37.3783  -17.2305   36.4033 C   0  0  0  0  0  0  0  0  0  0  0  0
   36.0847  -16.8791   36.7034 C   0  0  0  0  0  0  0  0  0  0  0  0
   35.2656  -17.8511   37.1226 N   0  0  0  0  0  0  0  0  0  0  0  0
   35.6269  -19.1377   37.2669 C   0  0  0  0  0  0  0  0  0  0  0  0
   34.7340  -20.0979   37.7037 C   0  0  0  0  0  0  0  0  0  0  0  0
   35.0755  -21.4250   37.8601 C   0  0  0  0  0  0  0  0  0  0  0  0
   35.6162  -15.4836   36.5683 C   0  0  0  0  0  0  0  0  0  0  0  0
   36.3580  -14.3511   36.4298 C   0  0  0  0  0  0  0  0  0  0  0  0
   35.4561  -13.3038   36.3425 C   0  0  0  0  0  0  0  0  0  0  0  0
   34.2116  -13.8572   36.4329 C   0  0  0  0  0  0  0  0  0  0  0  0
   32.9026  -13.1438   36.3913 C   0  0  0  0  0  0  0  0  0  0  0  0
   34.3609  -15.1336   36.5637 O   0  0  0  0  0  0  0  0  0  0  0  0
   37.5282  -23.8004   36.7169 C   0  0  0  0  0  0  0  0  0  0  0  0
   36.7663  -23.1369   37.7068 O   0  0  0  0  0  0  0  0  0  0  0  0
   39.1489  -18.9066   36.2373 N   0  0  0  0  0  0  0  0  0  0  0  0
   39.8308  -19.0981   36.9817 H   0  0  0  0  0  0  0  0  0  0  0  0
   39.6340  -19.0176   34.8793 C   0  0  0  0  0  0  0  0  0  0  0  0
   39.2850  -20.3439   34.2553 C   0  0  0  0  0  0  0  0  0  0  0  0
   40.7714  -20.6961   34.2924 C   0  0  0  0  0  0  0  0  0  0  0  0
   41.1126  -19.3257   34.7882 C   0  0  0  0  0  0  0  0  0  0  0  0
   41.3342  -21.0428   32.9499 C   0  0  0  0  0  0  0  0  0  0  0  0
   41.8589  -22.4464   32.8755 C   0  0  0  0  0  0  0  0  0  0  0  0
   42.8098  -22.7554   33.9064 N   0  0  0  0  0  0  0  0  0  0  0  0
   42.8549  -24.2117   34.0297 C   0  0  0  0  0  0  0  0  0  0  0  0
   42.4896  -22.1925   35.1880 C   0  0  0  0  0  0  0  0  0  0  0  0
   41.0415  -21.8236   35.2502 C   0  0  0  0  0  0  0  0  0  0  0  0
   34.1607  -22.3489   38.2962 O   0  0  0  0  0  0  0  0  0  0  0  0
   32.8650  -22.4886   37.7961 C   0  0  0  0  0  0  0  0  0  0  0  0
   32.9912  -23.0353   36.3677 C   0  0  0  0  0  0  0  0  0  0  0  0
   33.1132  -24.5572   36.4467 C   0  0  0  0  0  0  0  0  0  0  0  0
   31.9803  -25.1052   35.7302 N   0  0  0  0  0  0  0  0  0  0  0  0
   31.4081  -24.1420   34.8080 C   0  0  0  0  0  0  0  0  0  0  0  0
   30.1744  -24.9144   34.3269 C   0  0  0  0  0  0  0  0  0  0  0  0
   29.7609  -25.6925   35.5674 C   0  0  0  0  0  0  0  0  0  0  0  0
   30.8657  -25.4129   36.5774 C   0  0  0  0  0  0  0  0  0  0  0  0
 17 18  1  0  0  0
 18  1  1  0  0  0
  1  2  2  0  0  0
  2  3  1  0  0  0
  3  4  2  0  0  0
  4 19  1  0  0  0
 19 21  1  0  0  0
 21 22  1  0  0  0
 22 23  1  0  0  0
 23 24  1  0  0  0
 23 25  1  0  0  0
 25 26  1  0  0  0
 26 27  1  0  0  0
 27 28  1  0  0  0
 27 29  1  0  0  0
 29 30  1  0  0  0
  4  5  1  0  0  0
  5  6  2  0  0  0
  6  7  1  0  0  0
  7  8  2  0  0  0
  8  9  1  0  0  0
  9 10  2  0  0  0
 10 31  1  0  0  0
 31 32  1  0  0  0
 32 33  1  0  0  0
 33 34  1  0  0  0
 34 35  1  0  0  0
 35 36  1  0  0  0
 36 37  1  0  0  0
 37 38  1  0  0  0
 38 39  1  0  0  0
  6 11  1  0  0  0
 11 12  2  0  0  0
 12 13  1  0  0  0
 13 14  2  0  0  0
 14 15  1  0  0  0
 14 16  1  0  0  0
 10  1  1  0  0  0
 39 35  1  0  0  0
 16 11  1  0  0  0
  8  3  1  0  0  0
 24 21  1  0  0  0
 30 23  1  0  0  0
 19 20  1  0  0  0
M  END
> <minimizedAffinity>
-5.75191

> <CNNscore>
0.2805276513

> <CNNaffinity>
6.1461896896

> <CNN_VS>
1.7241761684

> <CNNaffinity_variance>
0.0237643681

$$$$
[H]c1c(OC([H])([H])C([H])([H])C([H])([H])N2C([H])([H])C([H])([H])C([H])([H])C2([H])[H])c(OC([H])([H])[H])c([H])c2c(N([H])C3([H])C([H])([H])C([H])([H])N(C([H])(C([H])([H])[H])C([H])([H])[H])C([H])([H])C3([H])[H])nc(N3C([H])([H])C([H])([H])C([H])([H])C([H])([H])C([H])([H])C3([H])[H])nc12


 39 43  0  0  0  0  0  0  0  0999 V2000
   36.0078  -14.0772   36.6980 C   0  0  0  0  0  0  0  0  0  0  0  0
   36.4124  -15.4021   36.6768 C   0  0  0  0  0  0  0  0  0  0  0  0
   35.5339  -16.4140   36.3734 C   0  0  0  0  0  0  0  0  0  0  0  0
   35.9512  -17.7280   36.3564 C   0  0  0  0  0  0  0  0  0  0  0  0
   34.9955  -18.6327   36.0442 N   0  0  0  0  0  0  0  0  0  0  0  0
   33.7318  -18.3326   35.7655 C   0  0  0  0  0  0  0  0  0  0  0  0
   33.3634  -17.0437   35.7920 N   0  0  0  0  0  0  0  0  0  0  0  0
   34.2214  -16.0543   36.0883 C   0  0  0  0  0  0  0  0  0  0  0  0
   33.8266  -14.7332   36.1115 C   0  0  0  0  0  0  0  0  0  0  0  0
   34.6890  -13.7163   36.4115 C   0  0  0  0  0  0  0  0  0  0  0  0
   32.7464  -19.3170   35.4392 N   0  0  0  0  0  0  0  0  0  0  0  0
   31.3892  -18.8680   35.2709 C   0  0  0  0  0  0  0  0  0  0  0  0
   30.5618  -19.8185   34.4640 C   0  0  0  0  0  0  0  0  0  0  0  0
   30.5422  -21.2186   34.9719 C   0  0  0  0  0  0  0  0  0  0  0  0
   31.0544  -21.3862   36.3644 C   0  0  0  0  0  0  0  0  0  0  0  0
   32.5671  -21.4923   36.4243 C   0  0  0  0  0  0  0  0  0  0  0  0
   33.2124  -20.6847   35.3106 C   0  0  0  0  0  0  0  0  0  0  0  0
   38.1487  -13.4244   37.5879 C   0  0  0  0  0  0  0  0  0  0  0  0
   36.9222  -13.0728   37.0097 O   0  0  0  0  0  0  0  0  0  0  0  0
   37.2701  -18.1325   36.6359 N   0  0  0  0  0  0  0  0  0  0  0  0
   37.6268  -18.0542   37.6377 H   0  0  0  0  0  0  0  0  0  0  0  0
   38.2139  -18.6510   35.7025 C   0  0  0  0  0  0  0  0  0  0  0  0
   37.8950  -18.3807   34.2449 C   0  0  0  0  0  0  0  0  0  0  0  0
   38.9895  -19.1182   33.4625 C   0  0  0  0  0  0  0  0  0  0  0  0
   40.0352  -19.5778   34.3105 N   0  0  0  0  0  0  0  0  0  0  0  0
   39.5731  -20.6504   35.1399 C   0  0  0  0  0  0  0  0  0  0  0  0
   38.2945  -20.1592   35.8376 C   0  0  0  0  0  0  0  0  0  0  0  0
   41.2783  -19.8325   33.6636 C   0  0  0  0  0  0  0  0  0  0  0  0
   42.2991  -18.7593   33.8384 C   0  0  0  0  0  0  0  0  0  0  0  0
   41.8748  -21.1265   34.1683 C   0  0  0  0  0  0  0  0  0  0  0  0
   34.3258  -12.3805   36.4434 O   0  0  0  0  0  0  0  0  0  0  0  0
   33.7537  -11.7845   37.5902 C   0  0  0  0  0  0  0  0  0  0  0  0
   32.3653  -12.2908   37.8623 C   0  0  0  0  0  0  0  0  0  0  0  0
   31.3214  -11.3302   37.2973 C   0  0  0  0  0  0  0  0  0  0  0  0
   30.0306  -11.8565   37.6227 N   0  0  0  0  0  0  0  0  0  0  0  0
   30.0534  -12.4604   38.9158 C   0  0  0  0  0  0  0  0  0  0  0  0
   29.0034  -11.7569   39.7570 C   0  0  0  0  0  0  0  0  0  0  0  0
   28.8727  -10.4274   39.0189 C   0  0  0  0  0  0  0  0  0  0  0  0
   28.9852  -10.8845   37.5878 C   0  0  0  0  0  0  0  0  0  0  0  0
 18 19  1  0  0  0
 19  1  1  0  0  0
  1  2  2  0  0  0
  2  3  1  0  0  0
  3  4  2  0  0  0
  4 20  1  0  0  0
 20 22  1  0  0  0
 22 23  1  0  0  0
 23 24  1  0  0  0
 24 25  1  0  0  0
 25 26  1  0  0  0
 26 27  1  0  0  0
 25 28  1  0  0  0
 28 29  1  0  0  0
 28 30  1  0  0  0
  4  5  1  0  0  0
  5  6  2  0  0  0
  6  7  1  0  0  0
  7  8  2  0  0  0
  8  9  1  0  0  0
  9 10  2  0  0  0
 10 31  1  0  0  0
 31 32  1  0  0  0
 32 33  1  0  0  0
 33 34  1  0  0  0
 34 35  1  0  0  0
 35 36  1  0  0  0
 36 37  1  0  0  0
 37 38  1  0  0  0
 38 39  1  0  0  0
  6 11  1  0  0  0
 11 12  1  0  0  0
 12 13  1  0  0  0
 13 14  1  0  0  0
 14 15  1  0  0  0
 15 16  1  0  0  0
 16 17  1  0  0  0
 10  1  1  0  0  0
 39 35  1  0  0  0
 17 11  1  0  0  0
  8  3  1  0  0  0
 27 22  1  0  0  0
 20 21  1  0  0  0
M  END
> <minimizedAffinity>
-8.30396

> <CNNscore>
0.7213435769

> <CNNaffinity>
7.5674767494

> <CNN_VS>
5.4587507248

> <CNNaffinity_variance>
0.0388844498

$$$$
[H]c1c(OC([H])([H])C([H])([H])C([H])([H])N2C([H])([H])C([H])([H])C([H])([H])C2([H])[H])c(OC([H])([H])[H])c([H])c2c(N([H])C3([H])C([H])([H])C([H])([H])N(C([H])(C([H])([H])[H])C([H])([H])[H])C([H])([H])C3([H])[H])nc(N3C([H])([H])C([H])([H])C([H])([H])C([H])([H])C([H])([H])C3([H])[H])nc12


 39 43  0  0  0  0  0  0  0  0999 V2000
   36.0937  -13.8334   36.6514 C   0  0  0  0  0  0  0  0  0  0  0  0
   36.5421  -15.0838   36.2578 C   0  0  0  0  0  0  0  0  0  0  0  0
   35.6647  -16.1027   35.9753 C   0  0  0  0  0  0  0  0  0  0  0  0
   36.1261  -17.3420   35.5849 C   0  0  0  0  0  0  0  0  0  0  0  0
   35.1668  -18.2621   35.3351 N   0  0  0  0  0  0  0  0  0  0  0  0
   33.8611  -18.0419   35.4421 C   0  0  0  0  0  0  0  0  0  0  0  0
   33.4506  -16.8242   35.8244 N   0  0  0  0  0  0  0  0  0  0  0  0
   34.3075  -15.8280   36.1005 C   0  0  0  0  0  0  0  0  0  0  0  0
   33.8691  -14.5807   36.4928 C   0  0  0  0  0  0  0  0  0  0  0  0
   34.7298  -13.5579   36.7770 C   0  0  0  0  0  0  0  0  0  0  0  0
   32.8733  -19.0403   35.1698 N   0  0  0  0  0  0  0  0  0  0  0  0
   31.4961  -18.6932   35.4031 C   0  0  0  0  0  0  0  0  0  0  0  0
   30.5442  -19.5614   34.6420 C   0  0  0  0  0  0  0  0  0  0  0  0
   30.7130  -21.0239   34.8681 C   0  0  0  0  0  0  0  0  0  0  0  0
   31.5526  -21.3815   36.0499 C   0  0  0  0  0  0  0  0  0  0  0  0
   33.0384  -21.3597   35.7421 C   0  0  0  0  0  0  0  0  0  0  0  0
   33.3582  -20.3179   34.6832 C   0  0  0  0  0  0  0  0  0  0  0  0
   38.2314  -13.1523   37.5275 C   0  0  0  0  0  0  0  0  0  0  0  0
   37.0081  -12.8198   36.9314 O   0  0  0  0  0  0  0  0  0  0  0  0
   37.4902  -17.6587   35.4435 N   0  0  0  0  0  0  0  0  0  0  0  0
   38.1875  -16.8638   35.3064 H   0  0  0  0  0  0  0  0  0  0  0  0
   38.0644  -18.9629   35.4628 C   0  0  0  0  0  0  0  0  0  0  0  0
   39.2509  -19.1316   36.3918 C   0  0  0  0  0  0  0  0  0  0  0  0
   39.7344  -20.5676   36.1507 C   0  0  0  0  0  0  0  0  0  0  0  0
   38.8131  -21.3175   35.3680 N   0  0  0  0  0  0  0  0  0  0  0  0
   38.7996  -20.8418   34.0169 C   0  0  0  0  0  0  0  0  0  0  0  0
   38.5661  -19.3237   34.0780 C   0  0  0  0  0  0  0  0  0  0  0  0
   38.9198  -22.7327   35.4889 C   0  0  0  0  0  0  0  0  0  0  0  0
   39.5262  -23.4115   34.3074 C   0  0  0  0  0  0  0  0  0  0  0  0
   39.7436  -23.0929   36.7040 C   0  0  0  0  0  0  0  0  0  0  0  0
   34.3235  -12.2947   37.1729 O   0  0  0  0  0  0  0  0  0  0  0  0
   33.3407  -12.0995   38.1698 C   0  0  0  0  0  0  0  0  0  0  0  0
   32.0030  -11.7393   37.5876 C   0  0  0  0  0  0  0  0  0  0  0  0
   30.8755  -12.3887   38.3867 C   0  0  0  0  0  0  0  0  0  0  0  0
   29.6367  -11.9369   37.8294 N   0  0  0  0  0  0  0  0  0  0  0  0
   28.5544  -12.2562   38.7036 C   0  0  0  0  0  0  0  0  0  0  0  0
   27.8584  -10.9518   39.0491 C   0  0  0  0  0  0  0  0  0  0  0  0
   28.9702   -9.9412   38.7809 C   0  0  0  0  0  0  0  0  0  0  0  0
   29.6053  -10.5367   37.5513 C   0  0  0  0  0  0  0  0  0  0  0  0
 18 19  1  0  0  0
 19  1  1  0  0  0
  1  2  2  0  0  0
  2  3  1  0  0  0
  3  4  2  0  0  0
  4 20  1  0  0  0
 20 22  1  0  0  0
 22 23  1  0  0  0
 23 24  1  0  0  0
 24 25  1  0  0  0
 25 26  1  0  0  0
 26 27  1  0  0  0
 25 28  1  0  0  0
 28 29  1  0  0  0
 28 30  1  0  0  0
  4  5  1  0  0  0
  5  6  2  0  0  0
  6  7  1  0  0  0
  7  8  2  0  0  0
  8  9  1  0  0  0
  9 10  2  0  0  0
 10 31  1  0  0  0
 31 32  1  0  0  0
 32 33  1  0  0  0
 33 34  1  0  0  0
 34 35  1  0  0  0
 35 36  1  0  0  0
 36 37  1  0  0  0
 37 38  1  0  0  0
 38 39  1  0  0  0
  6 11  1  0  0  0
 11 12  1  0  0  0
 12 13  1  0  0  0
 13 14  1  0  0  0
 14 15  1  0  0  0
 15 16  1  0  0  0
 16 17  1  0  0  0
 10  1  1  0  0  0
 39 35  1  0  0  0
 17 11  1  0  0  0
  8  3  1  0  0  0
 27 22  1  0  0  0
 20 21  1  0  0  0
M  END
> <minimizedAffinity>
-8.11329

> <CNNscore>
0.7026435733

> <CNNaffinity>
7.4743819237

> <CNN_VS>
5.2518262863

> <CNNaffinity_variance>
0.0433808267

$$$$
[H]c1c(OC([H])([H])C([H])([H])C([H])([H])N2C([H])([H])C([H])([H])C([H])([H])C2([H])[H])c(OC([H])([H])[H])c([H])c2c(N([H])C3([H])C([H])([H])C([H])([H])N(C([H])(C([H])([H])[H])C([H])([H])[H])C([H])([H])C3([H])[H])nc(N3C([H])([H])C([H])([H])C([H])([H])C([H])([H])C([H])([H])C3([H])[H])nc12


 39 43  0  0  0  0  0  0  0  0999 V2000
   36.2142  -14.1957   36.6517 C   0  0  0  0  0  0  0  0  0  0  0  0
   36.7929  -15.4541   36.6169 C   0  0  0  0  0  0  0  0  0  0  0  0
   36.0507  -16.5757   36.3358 C   0  0  0  0  0  0  0  0  0  0  0  0
   36.6407  -17.8216   36.3048 C   0  0  0  0  0  0  0  0  0  0  0  0
   35.8074  -18.8473   36.0174 N   0  0  0  0  0  0  0  0  0  0  0  0
   34.5076  -18.7207   35.7743 C   0  0  0  0  0  0  0  0  0  0  0  0
   33.9697  -17.4933   35.8134 N   0  0  0  0  0  0  0  0  0  0  0  0
   34.6944  -16.3967   36.0878 C   0  0  0  0  0  0  0  0  0  0  0  0
   34.1260  -15.1408   36.1244 C   0  0  0  0  0  0  0  0  0  0  0  0
   34.8514  -14.0164   36.4023 C   0  0  0  0  0  0  0  0  0  0  0  0
   33.6551  -19.8296   35.4734 N   0  0  0  0  0  0  0  0  0  0  0  0
   32.7112  -19.6695   34.3987 C   0  0  0  0  0  0  0  0  0  0  0  0
   32.2464  -20.9766   33.8380 C   0  0  0  0  0  0  0  0  0  0  0  0
   31.6748  -21.9197   34.8392 C   0  0  0  0  0  0  0  0  0  0  0  0
   31.3414  -21.3052   36.1585 C   0  0  0  0  0  0  0  0  0  0  0  0
   32.5420  -21.2109   37.0819 C   0  0  0  0  0  0  0  0  0  0  0  0
   33.8233  -21.0178   36.2883 C   0  0  0  0  0  0  0  0  0  0  0  0
   38.2226  -13.2518   37.5880 C   0  0  0  0  0  0  0  0  0  0  0  0
   36.9931  -13.0767   36.9400 O   0  0  0  0  0  0  0  0  0  0  0  0
   38.0093  -18.0441   36.5471 N   0  0  0  0  0  0  0  0  0  0  0  0
   38.4976  -17.4589   37.2928 H   0  0  0  0  0  0  0  0  0  0  0  0
   38.8440  -18.9924   35.8877 C   0  0  0  0  0  0  0  0  0  0  0  0
   40.3089  -18.9425   36.2761 C   0  0  0  0  0  0  0  0  0  0  0  0
   40.9895  -19.9732   35.3660 C   0  0  0  0  0  0  0  0  0  0  0  0
   40.0451  -20.7786   34.6708 N   0  0  0  0  0  0  0  0  0  0  0  0
   39.3587  -20.0042   33.6803 C   0  0  0  0  0  0  0  0  0  0  0  0
   38.8029  -18.7591   34.3899 C   0  0  0  0  0  0  0  0  0  0  0  0
   40.5392  -22.0278   34.1977 C   0  0  0  0  0  0  0  0  0  0  0  0
   41.6571  -21.9205   33.2163 C   0  0  0  0  0  0  0  0  0  0  0  0
   41.0185  -22.8729   35.3558 C   0  0  0  0  0  0  0  0  0  0  0  0
   34.3125  -12.7417   36.4468 O   0  0  0  0  0  0  0  0  0  0  0  0
   33.7442  -12.2067   37.6252 C   0  0  0  0  0  0  0  0  0  0  0  0
   32.3104  -12.6196   37.8040 C   0  0  0  0  0  0  0  0  0  0  0  0
   31.3735  -11.4464   37.5257 C   0  0  0  0  0  0  0  0  0  0  0  0
   30.0360  -11.8970   37.7648 N   0  0  0  0  0  0  0  0  0  0  0  0
   29.9207  -12.4283   39.0846 C   0  0  0  0  0  0  0  0  0  0  0  0
   28.8387  -11.6339   39.7940 C   0  0  0  0  0  0  0  0  0  0  0  0
   28.8348  -10.3432   38.9794 C   0  0  0  0  0  0  0  0  0  0  0  0
   29.0453  -10.8838   37.5891 C   0  0  0  0  0  0  0  0  0  0  0  0
 18 19  1  0  0  0
 19  1  1  0  0  0
  1  2  2  0  0  0
  2  3  1  0  0  0
  3  4  2  0  0  0
  4 20  1  0  0  0
 20 22  1  0  0  0
 22 23  1  0  0  0
 23 24  1  0  0  0
 24 25  1  0  0  0
 25 26  1  0  0  0
 26 27  1  0  0  0
 25 28  1  0  0  0
 28 29  1  0  0  0
 28 30  1  0  0  0
  4  5  1  0  0  0
  5  6  2  0  0  0
  6  7  1  0  0  0
  7  8  2  0  0  0
  8  9  1  0  0  0
  9 10  2  0  0  0
 10 31  1  0  0  0
 31 32  1  0  0  0
 32 33  1  0  0  0
 33 34  1  0  0  0
 34 35  1  0  0  0
 35 36  1  0  0  0
 36 37  1  0  0  0
 37 38  1  0  0  0
 38 39  1  0  0  0
  6 11  1  0  0  0
 11 12  1  0  0  0
 12 13  1  0  0  0
 13 14  1  0  0  0
 14 15  1  0  0  0
 15 16  1  0  0  0
 16 17  1  0  0  0
 10  1  1  0  0  0
 39 35  1  0  0  0
 17 11  1  0  0  0
  8  3  1  0  0  0
 27 22  1  0  0  0
 20 21  1  0  0  0
M  END
> <minimizedAffinity>
-8.32521

> <CNNscore>
0.5088980794

> <CNNaffinity>
7.0934524536

> <CNN_VS>
3.6098444462

> <CNNaffinity_variance>
0.0382417552

$$$$
[H]c1c(OC([H])([H])C([H])([H])C([H])([H])N2C([H])([H])C([H])([H])C([H])([H])C2([H])[H])c(OC([H])([H])[H])c([H])c2c(N([H])C3([H])C([H])([H])C([H])([H])N(C([H])(C([H])([H])[H])C([H])([H])[H])C([H])([H])C3([H])[H])nc(N3C([H])([H])C([H])([H])C([H])([H])C([H])([H])C([H])([H])C3([H])[H])nc12


 39 43  0  0  0  0  0  0  0  0999 V2000
   36.2401  -13.9794   36.5886 C   0  0  0  0  0  0  0  0  0  0  0  0
   36.7222  -15.2595   36.3681 C   0  0  0  0  0  0  0  0  0  0  0  0
   35.8718  -16.3247   36.1951 C   0  0  0  0  0  0  0  0  0  0  0  0
   36.3664  -17.5930   35.9766 C   0  0  0  0  0  0  0  0  0  0  0  0
   35.4315  -18.5579   35.8216 N   0  0  0  0  0  0  0  0  0  0  0  0
   34.1195  -18.3544   35.8671 C   0  0  0  0  0  0  0  0  0  0  0  0
   33.6763  -17.1074   36.0815 N   0  0  0  0  0  0  0  0  0  0  0  0
   34.5068  -16.0659   36.2504 C   0  0  0  0  0  0  0  0  0  0  0  0
   34.0349  -14.7889   36.4703 C   0  0  0  0  0  0  0  0  0  0  0  0
   34.8685  -13.7199   36.6440 C   0  0  0  0  0  0  0  0  0  0  0  0
   33.1581  -19.4004   35.6989 N   0  0  0  0  0  0  0  0  0  0  0  0
   33.3076  -20.5774   36.5138 C   0  0  0  0  0  0  0  0  0  0  0  0
   32.0361  -21.3554   36.6443 C   0  0  0  0  0  0  0  0  0  0  0  0
   31.4055  -21.7459   35.3526 C   0  0  0  0  0  0  0  0  0  0  0  0
   32.2898  -21.6074   34.1576 C   0  0  0  0  0  0  0  0  0  0  0  0
   32.3115  -20.1944   33.6043 C   0  0  0  0  0  0  0  0  0  0  0  0
   32.1179  -19.1741   34.7136 C   0  0  0  0  0  0  0  0  0  0  0  0
   38.3594  -13.1566   37.3841 C   0  0  0  0  0  0  0  0  0  0  0  0
   37.1277  -12.9190   36.7606 O   0  0  0  0  0  0  0  0  0  0  0  0
   37.7395  -17.8954   35.9107 N   0  0  0  0  0  0  0  0  0  0  0  0
   38.3476  -17.3602   35.2173 H   0  0  0  0  0  0  0  0  0  0  0  0
   38.4323  -18.8669   36.6898 C   0  0  0  0  0  0  0  0  0  0  0  0
   39.6604  -19.4652   36.0317 C   0  0  0  0  0  0  0  0  0  0  0  0
   40.1500  -20.5341   37.0176 C   0  0  0  0  0  0  0  0  0  0  0  0
   39.4844  -20.4492   38.2720 N   0  0  0  0  0  0  0  0  0  0  0  0
   38.1168  -20.8550   38.1423 C   0  0  0  0  0  0  0  0  0  0  0  0
   37.5123  -20.0340   36.9919 C   0  0  0  0  0  0  0  0  0  0  0  0
   40.1702  -21.0460   39.3684 C   0  0  0  0  0  0  0  0  0  0  0  0
   41.2156  -20.1825   39.9896 C   0  0  0  0  0  0  0  0  0  0  0  0
   39.1882  -21.4357   40.4496 C   0  0  0  0  0  0  0  0  0  0  0  0
   34.4282  -12.4261   36.8663 O   0  0  0  0  0  0  0  0  0  0  0  0
   33.5947  -12.0930   37.9581 C   0  0  0  0  0  0  0  0  0  0  0  0
   32.4258  -11.2443   37.5439 C   0  0  0  0  0  0  0  0  0  0  0  0
   31.1361  -12.0618   37.5550 C   0  0  0  0  0  0  0  0  0  0  0  0
   30.1930  -11.3676   38.3783 N   0  0  0  0  0  0  0  0  0  0  0  0
   29.1236  -10.8559   37.5832 C   0  0  0  0  0  0  0  0  0  0  0  0
   27.8362  -11.4436   38.1331 C   0  0  0  0  0  0  0  0  0  0  0  0
   28.3577  -12.6893   38.8442 C   0  0  0  0  0  0  0  0  0  0  0  0
   29.6446  -12.1661   39.4273 C   0  0  0  0  0  0  0  0  0  0  0  0
 18 19  1  0  0  0
 19  1  1  0  0  0
  1  2  2  0  0  0
  2  3  1  0  0  0
  3  4  2  0  0  0
  4 20  1  0  0  0
 20 22  1  0  0  0
 22 23  1  0  0  0
 23 24  1  0  0  0
 24 25  1  0  0  0
 25 26  1  0  0  0
 26 27  1  0  0  0
 25 28  1  0  0  0
 28 29  1  0  0  0
 28 30  1  0  0  0
  4  5  1  0  0  0
  5  6  2  0  0  0
  6  7  1  0  0  0
  7  8  2  0  0  0
  8  9  1  0  0  0
  9 10  2  0  0  0
 10 31  1  0  0  0
 31 32  1  0  0  0
 32 33  1  0  0  0
 33 34  1  0  0  0
 34 35  1  0  0  0
 35 36  1  0  0  0
 36 37  1  0  0  0
 37 38  1  0  0  0
 38 39  1  0  0  0
  6 11  1  0  0  0
 11 12  1  0  0  0
 12 13  1  0  0  0
 13 14  1  0  0  0
 14 15  1  0  0  0
 15 16  1  0  0  0
 16 17  1  0  0  0
 10  1  1  0  0  0
 39 35  1  0  0  0
 17 11  1  0  0  0
  8  3  1  0  0  0
 27 22  1  0  0  0
 20 21  1  0  0  0
M  END
> <minimizedAffinity>
-7.66019

> <CNNscore>
0.4572500288

> <CNNaffinity>
7.0312004089

> <CNN_VS>
3.2150166035

> <CNNaffinity_variance>
0.0850674286

$$$$
[H]c1c(OC([H])([H])C([H])([H])C([H])([H])N2C([H])([H])C([H])([H])C([H])([H])C2([H])[H])c(OC([H])([H])[H])c([H])c2c(N([H])C3([H])C([H])([H])C([H])([H])N(C([H])(C([H])([H])[H])C([H])([H])[H])C([H])([H])C3([H])[H])nc(N3C([H])([H])C([H])([H])C([H])([H])C([H])([H])C([H])([H])C3([H])[H])nc12


 39 43  0  0  0  0  0  0  0  0999 V2000
   32.1667  -21.1598   35.0724 C   0  0  0  0  0  0  0  0  0  0  0  0
   33.4703  -20.8388   35.4145 C   0  0  0  0  0  0  0  0  0  0  0  0
   33.8544  -19.5370   35.6286 C   0  0  0  0  0  0  0  0  0  0  0  0
   35.1556  -19.2330   35.9683 C   0  0  0  0  0  0  0  0  0  0  0  0
   35.4113  -17.9177   36.1526 N   0  0  0  0  0  0  0  0  0  0  0  0
   34.5123  -16.9477   36.0286 C   0  0  0  0  0  0  0  0  0  0  0  0
   33.2570  -17.2823   35.6970 N   0  0  0  0  0  0  0  0  0  0  0  0
   32.8810  -18.5541   35.4878 C   0  0  0  0  0  0  0  0  0  0  0  0
   31.5856  -18.8819   35.1472 C   0  0  0  0  0  0  0  0  0  0  0  0
   31.1891  -20.1718   34.9313 C   0  0  0  0  0  0  0  0  0  0  0  0
   34.8187  -15.5650   36.2311 N   0  0  0  0  0  0  0  0  0  0  0  0
   36.0698  -15.2482   36.8683 C   0  0  0  0  0  0  0  0  0  0  0  0
   36.5247  -13.8509   36.5862 C   0  0  0  0  0  0  0  0  0  0  0  0
   35.5350  -12.7900   36.9232 C   0  0  0  0  0  0  0  0  0  0  0  0
   34.4051  -13.2407   37.7889 C   0  0  0  0  0  0  0  0  0  0  0  0
   33.2855  -13.8937   36.9996 C   0  0  0  0  0  0  0  0  0  0  0  0
   33.8303  -14.6070   35.7734 C   0  0  0  0  0  0  0  0  0  0  0  0
   32.2517  -23.4659   35.7625 C   0  0  0  0  0  0  0  0  0  0  0  0
   31.8074  -22.4896   34.8614 O   0  0  0  0  0  0  0  0  0  0  0  0
   36.1684  -20.1981   36.1232 N   0  0  0  0  0  0  0  0  0  0  0  0
   35.9252  -21.1220   36.5968 H   0  0  0  0  0  0  0  0  0  0  0  0
   37.5258  -20.0773   35.7065 C   0  0  0  0  0  0  0  0  0  0  0  0
   38.3912  -19.1875   36.5774 C   0  0  0  0  0  0  0  0  0  0  0  0
   39.7499  -19.1470   35.8657 C   0  0  0  0  0  0  0  0  0  0  0  0
   39.8329  -20.1051   34.8174 N   0  0  0  0  0  0  0  0  0  0  0  0
   38.9828  -19.7300   33.7271 C   0  0  0  0  0  0  0  0  0  0  0  0
   37.5844  -19.4797   34.3140 C   0  0  0  0  0  0  0  0  0  0  0  0
   41.1531  -20.4732   34.4300 C   0  0  0  0  0  0  0  0  0  0  0  0
   41.2662  -21.0024   33.0402 C   0  0  0  0  0  0  0  0  0  0  0  0
   42.0833  -19.2879   34.5518 C   0  0  0  0  0  0  0  0  0  0  0  0
   29.8976  -20.5352   34.5884 O   0  0  0  0  0  0  0  0  0  0  0  0
   29.1264  -21.4105   35.3864 C   0  0  0  0  0  0  0  0  0  0  0  0
   29.1329  -21.0140   36.8359 C   0  0  0  0  0  0  0  0  0  0  0  0
   27.8614  -21.4951   37.5314 C   0  0  0  0  0  0  0  0  0  0  0  0
   28.0638  -22.8632   37.9010 N   0  0  0  0  0  0  0  0  0  0  0  0
   29.2821  -23.0040   38.6313 C   0  0  0  0  0  0  0  0  0  0  0  0
   28.9297  -23.6128   39.9768 C   0  0  0  0  0  0  0  0  0  0  0  0
   27.4560  -23.2344   40.0977 C   0  0  0  0  0  0  0  0  0  0  0  0
   26.9981  -23.4161   38.6739 C   0  0  0  0  0  0  0  0  0  0  0  0
 18 19  1  0  0  0
 19  1  1  0  0  0
  1  2  2  0  0  0
  2  3  1  0  0  0
  3  4  2  0  0  0
  4 20  1  0  0  0
 20 22  1  0  0  0
 22 23  1  0  0  0
 23 24  1  0  0  0
 24 25  1  0  0  0
 25 26  1  0  0  0
 26 27  1  0  0  0
 25 28  1  0  0  0
 28 29  1  0  0  0
 28 30  1  0  0  0
  4  5  1  0  0  0
  5  6  2  0  0  0
  6  7  1  0  0  0
  7  8  2  0  0  0
  8  9  1  0  0  0
  9 10  2  0  0  0
 10 31  1  0  0  0
 31 32  1  0  0  0
 32 33  1  0  0  0
 33 34  1  0  0  0
 34 35  1  0  0  0
 35 36  1  0  0  0
 36 37  1  0  0  0
 37 38  1  0  0  0
 38 39  1  0  0  0
  6 11  1  0  0  0
 11 12  1  0  0  0
 12 13  1  0  0  0
 13 14  1  0  0  0
 14 15  1  0  0  0
 15 16  1  0  0  0
 16 17  1  0  0  0
 10  1  1  0  0  0
 39 35  1  0  0  0
 17 11  1  0  0  0
  8  3  1  0  0  0
 27 22  1  0  0  0
 20 21  1  0  0  0
M  END
> <minimizedAffinity>
-6.48494

> <CNNscore>
0.3551732600

> <CNNaffinity>
6.3065080643

> <CNN_VS>
2.2399029732

> <CNNaffinity_variance>
0.4122562408

$$$$
[H]c1c(OC([H])([H])C([H])([H])C([H])([H])N2C([H])([H])C([H])([H])C([H])([H])C2([H])[H])c(OC([H])([H])[H])c([H])c2c(N([H])C3([H])C([H])([H])C([H])([H])N(C([H])(C([H])([H])[H])C([H])([H])[H])C([H])([H])C3([H])[H])nc(N3C([H])([H])C([H])([H])C([H])([H])C([H])([H])C([H])([H])C3([H])[H])nc12


 39 43  0  0  0  0  0  0  0  0999 V2000
   39.2229  -21.0785   39.5147 C   0  0  0  0  0  0  0  0  0  0  0  0
   39.1367  -20.3759   38.3237 C   0  0  0  0  0  0  0  0  0  0  0  0
   37.9241  -20.1163   37.7319 C   0  0  0  0  0  0  0  0  0  0  0  0
   37.8542  -19.4158   36.5463 C   0  0  0  0  0  0  0  0  0  0  0  0
   36.6059  -19.2238   36.0627 N   0  0  0  0  0  0  0  0  0  0  0  0
   35.4936  -19.6564   36.6461 C   0  0  0  0  0  0  0  0  0  0  0  0
   35.6017  -20.3338   37.7980 N   0  0  0  0  0  0  0  0  0  0  0  0
   36.7862  -20.5877   38.3770 C   0  0  0  0  0  0  0  0  0  0  0  0
   36.8805  -21.2862   39.5623 C   0  0  0  0  0  0  0  0  0  0  0  0
   38.0792  -21.5518   40.1625 C   0  0  0  0  0  0  0  0  0  0  0  0
   34.1879  -19.4349   36.1051 N   0  0  0  0  0  0  0  0  0  0  0  0
   33.2864  -20.5561   36.0653 C   0  0  0  0  0  0  0  0  0  0  0  0
   31.8515  -20.1413   35.9749 C   0  0  0  0  0  0  0  0  0  0  0  0
   31.5329  -19.2317   34.8392 C   0  0  0  0  0  0  0  0  0  0  0  0
   32.5905  -19.1487   33.7885 C   0  0  0  0  0  0  0  0  0  0  0  0
   33.6894  -18.1624   34.1387 C   0  0  0  0  0  0  0  0  0  0  0  0
   33.8959  -18.0914   35.6424 C   0  0  0  0  0  0  0  0  0  0  0  0
   41.2007  -20.2540   40.6146 C   0  0  0  0  0  0  0  0  0  0  0  0
   40.4673  -21.3264   40.0907 O   0  0  0  0  0  0  0  0  0  0  0  0
   38.9813  -18.9199   35.8644 N   0  0  0  0  0  0  0  0  0  0  0  0
   39.1340  -17.8651   35.8299 H   0  0  0  0  0  0  0  0  0  0  0  0
   39.9733  -19.6913   35.1925 C   0  0  0  0  0  0  0  0  0  0  0  0
   41.3840  -19.5333   35.7257 C   0  0  0  0  0  0  0  0  0  0  0  0
   42.2546  -20.3729   34.7817 C   0  0  0  0  0  0  0  0  0  0  0  0
   41.4726  -21.1862   33.9152 N   0  0  0  0  0  0  0  0  0  0  0  0
   40.7885  -20.3778   32.9506 C   0  0  0  0  0  0  0  0  0  0  0  0
   40.0338  -19.2898   33.7314 C   0  0  0  0  0  0  0  0  0  0  0  0
   42.1465  -22.3125   33.3620 C   0  0  0  0  0  0  0  0  0  0  0  0
   43.3004  -22.8025   34.1698 C   0  0  0  0  0  0  0  0  0  0  0  0
   41.1825  -23.4634   33.1849 C   0  0  0  0  0  0  0  0  0  0  0  0
   38.2091  -22.2495   41.3515 O   0  0  0  0  0  0  0  0  0  0  0  0
   38.3103  -21.5946   42.6000 C   0  0  0  0  0  0  0  0  0  0  0  0
   37.2158  -22.0006   43.5461 C   0  0  0  0  0  0  0  0  0  0  0  0
   35.9354  -22.3264   42.7804 C   0  0  0  0  0  0  0  0  0  0  0  0
   34.9023  -21.4741   43.2859 N   0  0  0  0  0  0  0  0  0  0  0  0
   35.4714  -20.3537   43.9629 C   0  0  0  0  0  0  0  0  0  0  0  0
   34.9487  -19.1038   43.2777 C   0  0  0  0  0  0  0  0  0  0  0  0
   34.5702  -19.6533   41.9050 C   0  0  0  0  0  0  0  0  0  0  0  0
   34.0047  -20.9976   42.2829 C   0  0  0  0  0  0  0  0  0  0  0  0
 18 19  1  0  0  0
 19  1  1  0  0  0
  1  2  2  0  0  0
  2  3  1  0  0  0
  3  4  2  0  0  0
  4 20  1  0  0  0
 20 22  1  0  0  0
 22 23  1  0  0  0
 23 24  1  0  0  0
 24 25  1  0  0  0
 25 26  1  0  0  0
 26 27  1  0  0  0
 25 28  1  0  0  0
 28 29  1  0  0  0
 28 30  1  0  0  0
  4  5  1  0  0  0
  5  6  2  0  0  0
  6  7  1  0  0  0
  7  8  2  0  0  0
  8  9  1  0  0  0
  9 10  2  0  0  0
 10 31  1  0  0  0
 31 32  1  0  0  0
 32 33  1  0  0  0
 33 34  1  0  0  0
 34 35  1  0  0  0
 35 36  1  0  0  0
 36 37  1  0  0  0
 37 38  1  0  0  0
 38 39  1  0  0  0
  6 11  1  0  0  0
 11 12  1  0  0  0
 12 13  1  0  0  0
 13 14  1  0  0  0
 14 15  1  0  0  0
 15 16  1  0  0  0
 16 17  1  0  0  0
 10  1  1  0  0  0
 39 35  1  0  0  0
 17 11  1  0  0  0
  8  3  1  0  0  0
 27 22  1  0  0  0
 20 21  1  0  0  0
M  END
> <minimizedAffinity>
-5.01824

> <CNNscore>
0.2727478147

> <CNNaffinity>
5.9521875381

> <CNN_VS>
1.6234461069

> <CNNaffinity_variance>
0.2755668163

$$$$
[H]c1c(OC([H])([H])C([H])([H])C([H])([H])N2C([H])([H])C([H])([H])C([H])([H])C2([H])[H])c(OC([H])([H])[H])c([H])c2c(N([H])C3([H])C([H])([H])C([H])([H])N(C([H])(C([H])([H])[H])C([H])([H])[H])C([H])([H])C3([H])[H])nc(N3C([H])([H])C([H])([H])C([H])([H])C([H])([H])C([H])([H])C3([H])[H])nc12


 39 43  0  0  0  0  0  0  0  0999 V2000
   38.3545  -21.2813   39.8664 C   0  0  0  0  0  0  0  0  0  0  0  0
   36.9998  -21.4148   40.1247 C   0  0  0  0  0  0  0  0  0  0  0  0
   36.0573  -21.1385   39.1639 C   0  0  0  0  0  0  0  0  0  0  0  0
   34.7126  -21.2759   39.4358 C   0  0  0  0  0  0  0  0  0  0  0  0
   33.8831  -20.9744   38.4110 N   0  0  0  0  0  0  0  0  0  0  0  0
   34.2809  -20.5707   37.2095 C   0  0  0  0  0  0  0  0  0  0  0  0
   35.5966  -20.4489   36.9827 N   0  0  0  0  0  0  0  0  0  0  0  0
   36.5183  -20.7190   37.9210 C   0  0  0  0  0  0  0  0  0  0  0  0
   37.8683  -20.5886   37.6719 C   0  0  0  0  0  0  0  0  0  0  0  0
   38.8171  -20.8598   38.6174 C   0  0  0  0  0  0  0  0  0  0  0  0
   33.3741  -20.2597   36.1476 N   0  0  0  0  0  0  0  0  0  0  0  0
   33.1793  -18.8703   35.8259 C   0  0  0  0  0  0  0  0  0  0  0  0
   32.6490  -18.6663   34.4416 C   0  0  0  0  0  0  0  0  0  0  0  0
   31.3938  -19.4078   34.1362 C   0  0  0  0  0  0  0  0  0  0  0  0
   30.6835  -19.9540   35.3305 C   0  0  0  0  0  0  0  0  0  0  0  0
   31.2426  -21.2894   35.7858 C   0  0  0  0  0  0  0  0  0  0  0  0
   32.7307  -21.3830   35.4930 C   0  0  0  0  0  0  0  0  0  0  0  0
   39.0508  -21.1171   42.1663 C   0  0  0  0  0  0  0  0  0  0  0  0
   39.2867  -21.5689   40.8615 O   0  0  0  0  0  0  0  0  0  0  0  0
   34.2063  -21.7003   40.6787 N   0  0  0  0  0  0  0  0  0  0  0  0
   34.3747  -22.7088   40.9813 H   0  0  0  0  0  0  0  0  0  0  0  0
   33.4699  -20.9106   41.6088 C   0  0  0  0  0  0  0  0  0  0  0  0
   34.2165  -19.7194   42.1768 C   0  0  0  0  0  0  0  0  0  0  0  0
   33.2557  -19.1114   43.2070 C   0  0  0  0  0  0  0  0  0  0  0  0
   31.9522  -19.6746   43.1196 N   0  0  0  0  0  0  0  0  0  0  0  0
   31.9611  -21.0323   43.5761 C   0  0  0  0  0  0  0  0  0  0  0  0
   33.0721  -21.7589   42.8011 C   0  0  0  0  0  0  0  0  0  0  0  0
   30.9058  -18.8797   43.6688 C   0  0  0  0  0  0  0  0  0  0  0  0
   30.5766  -17.6575   42.8799 C   0  0  0  0  0  0  0  0  0  0  0  0
   29.6425  -19.6989   43.8033 C   0  0  0  0  0  0  0  0  0  0  0  0
   40.1794  -20.7397   38.4004 O   0  0  0  0  0  0  0  0  0  0  0  0
   40.7172  -19.7796   37.5134 C   0  0  0  0  0  0  0  0  0  0  0  0
   40.9728  -20.3480   36.1460 C   0  0  0  0  0  0  0  0  0  0  0  0
   41.1662  -19.2289   35.1253 C   0  0  0  0  0  0  0  0  0  0  0  0
   40.3917  -19.5622   33.9685 N   0  0  0  0  0  0  0  0  0  0  0  0
   39.4914  -20.6293   34.2657 C   0  0  0  0  0  0  0  0  0  0  0  0
   38.0892  -20.1268   33.9715 C   0  0  0  0  0  0  0  0  0  0  0  0
   38.2874  -18.6167   34.0703 C   0  0  0  0  0  0  0  0  0  0  0  0
   39.6463  -18.4663   33.4373 C   0  0  0  0  0  0  0  0  0  0  0  0
 18 19  1  0  0  0
 19  1  1  0  0  0
  1  2  2  0  0  0
  2  3  1  0  0  0
  3  4  2  0  0  0
  4 20  1  0  0  0
 20 22  1  0  0  0
 22 23  1  0  0  0
 23 24  1  0  0  0
 24 25  1  0  0  0
 25 26  1  0  0  0
 26 27  1  0  0  0
 25 28  1  0  0  0
 28 29  1  0  0  0
 28 30  1  0  0  0
  4  5  1  0  0  0
  5  6  2  0  0  0
  6  7  1  0  0  0
  7  8  2  0  0  0
  8  9  1  0  0  0
  9 10  2  0  0  0
 10 31  1  0  0  0
 31 32  1  0  0  0
 32 33  1  0  0  0
 33 34  1  0  0  0
 34 35  1  0  0  0
 35 36  1  0  0  0
 36 37  1  0  0  0
 37 38  1  0  0  0
 38 39  1  0  0  0
  6 11  1  0  0  0
 11 12  1  0  0  0
 12 13  1  0  0  0
 13 14  1  0  0  0
 14 15  1  0  0  0
 15 16  1  0  0  0
 16 17  1  0  0  0
 10  1  1  0  0  0
 39 35  1  0  0  0
 17 11  1  0  0  0
  8  3  1  0  0  0
 27 22  1  0  0  0
 20 21  1  0  0  0
M  END
> <minimizedAffinity>
-5.32566

> <CNNscore>
0.2589988410

> <CNNaffinity>
5.7954263687

> <CNN_VS>
1.5010087490

> <CNNaffinity_variance>
0.5615035295

$$$$
[H]c1c(OC([H])([H])C([H])([H])C([H])([H])N2C([H])([H])C([H])([H])C([H])([H])C2([H])[H])c(OC([H])([H])[H])c([H])c2c(N([H])C3([H])C([H])([H])C([H])([H])N(C([H])(C([H])([H])[H])C([H])([H])[H])C([H])([H])C3([H])[H])nc(N3C([H])([H])C([H])([H])C([H])([H])C([H])([H])C([H])([H])C3([H])[H])nc12


 39 43  0  0  0  0  0  0  0  0999 V2000
   36.3854  -22.0302   38.0272 C   0  0  0  0  0  0  0  0  0  0  0  0
   37.3475  -21.2409   37.4180 C   0  0  0  0  0  0  0  0  0  0  0  0
   37.1671  -19.8883   37.2575 C   0  0  0  0  0  0  0  0  0  0  0  0
   38.1336  -19.1158   36.6490 C   0  0  0  0  0  0  0  0  0  0  0  0
   37.8410  -17.7992   36.5490 N   0  0  0  0  0  0  0  0  0  0  0  0
   36.7199  -17.2379   36.9878 C   0  0  0  0  0  0  0  0  0  0  0  0
   35.8034  -18.0214   37.5741 N   0  0  0  0  0  0  0  0  0  0  0  0
   35.9791  -19.3432   37.7315 C   0  0  0  0  0  0  0  0  0  0  0  0
   35.0265  -20.1356   38.3368 C   0  0  0  0  0  0  0  0  0  0  0  0
   35.1919  -21.4819   38.5033 C   0  0  0  0  0  0  0  0  0  0  0  0
   36.4434  -15.8396   36.8647 N   0  0  0  0  0  0  0  0  0  0  0  0
   37.0820  -14.9513   37.8001 C   0  0  0  0  0  0  0  0  0  0  0  0
   37.1493  -13.5411   37.3044 C   0  0  0  0  0  0  0  0  0  0  0  0
   35.8396  -12.9540   36.9061 C   0  0  0  0  0  0  0  0  0  0  0  0
   34.6441  -13.7172   37.3728 C   0  0  0  0  0  0  0  0  0  0  0  0
   34.2911  -14.8732   36.4551 C   0  0  0  0  0  0  0  0  0  0  0  0
   35.5370  -15.4479   35.8021 C   0  0  0  0  0  0  0  0  0  0  0  0
   36.6339  -24.2101   37.0336 C   0  0  0  0  0  0  0  0  0  0  0  0
   36.5971  -23.3995   38.1755 O   0  0  0  0  0  0  0  0  0  0  0  0
   39.3495  -19.6286   36.1591 N   0  0  0  0  0  0  0  0  0  0  0  0
   39.3557  -20.1034   35.2043 H   0  0  0  0  0  0  0  0  0  0  0  0
   40.6139  -19.5847   36.8148 C   0  0  0  0  0  0  0  0  0  0  0  0
   41.5314  -18.4614   36.3723 C   0  0  0  0  0  0  0  0  0  0  0  0
   42.8377  -18.6983   37.1415 C   0  0  0  0  0  0  0  0  0  0  0  0
   42.6901  -19.6868   38.1538 N   0  0  0  0  0  0  0  0  0  0  0  0
   42.5215  -20.9831   37.5680 C   0  0  0  0  0  0  0  0  0  0  0  0
   41.3739  -20.8703   36.5515 C   0  0  0  0  0  0  0  0  0  0  0  0
   43.6560  -19.6387   39.1994 C   0  0  0  0  0  0  0  0  0  0  0  0
   43.3346  -18.6805   40.2963 C   0  0  0  0  0  0  0  0  0  0  0  0
   43.8280  -21.0082   39.8157 C   0  0  0  0  0  0  0  0  0  0  0  0
   34.2565  -22.3057   39.1064 O   0  0  0  0  0  0  0  0  0  0  0  0
   32.9292  -22.4092   38.6316 C   0  0  0  0  0  0  0  0  0  0  0  0
   32.8721  -22.8026   37.1824 C   0  0  0  0  0  0  0  0  0  0  0  0
   31.9108  -21.8969   36.4161 C   0  0  0  0  0  0  0  0  0  0  0  0
   32.6993  -20.9514   35.6857 N   0  0  0  0  0  0  0  0  0  0  0  0
   32.4984  -21.1179   34.2823 C   0  0  0  0  0  0  0  0  0  0  0  0
   32.0007  -19.7898   33.7406 C   0  0  0  0  0  0  0  0  0  0  0  0
   31.4249  -19.1512   35.0016 C   0  0  0  0  0  0  0  0  0  0  0  0
   32.4347  -19.5910   36.0295 C   0  0  0  0  0  0  0  0  0  0  0  0
 18 19  1  0  0  0
 19  1  1  0  0  0
  1  2  2  0  0  0
  2  3  1  0  0  0
  3  4  2  0  0  0
  4 20  1  0  0  0
 20 22  1  0  0  0
 22 23  1  0  0  0
 23 24  1  0  0  0
 24 25  1  0  0  0
 25 26  1  0  0  0
 26 27  1  0  0  0
 25 28  1  0  0  0
 28 29  1  0  0  0
 28 30  1  0  0  0
  4  5  1  0  0  0
  5  6  2  0  0  0
  6  7  1  0  0  0
  7  8  2  0  0  0
  8  9  1  0  0  0
  9 10  2  0  0  0
 10 31  1  0  0  0
 31 32  1  0  0  0
 32 33  1  0  0  0
 33 34  1  0  0  0
 34 35  1  0  0  0
 35 36  1  0  0  0
 36 37  1  0  0  0
 37 38  1  0  0  0
 38 39  1  0  0  0
  6 11  1  0  0  0
 11 12  1  0  0  0
 12 13  1  0  0  0
 13 14  1  0  0  0
 14 15  1  0  0  0
 15 16  1  0  0  0
 16 17  1  0  0  0
 10  1  1  0  0  0
 39 35  1  0  0  0
 17 11  1  0  0  0
  8  3  1  0  0  0
 27 22  1  0  0  0
 20 21  1  0  0  0
M  END
> <minimizedAffinity>
-6.67251

> <CNNscore>
0.2463813424

> <CNNaffinity>
6.1293058395

> <CNN_VS>
1.5101466179

> <CNNaffinity_variance>
0.7663453221

$$$$
[H]c1c(OC([H])([H])C([H])([H])C([H])([H])N2C([H])([H])C([H])([H])C([H])([H])C2([H])[H])c(OC([H])([H])[H])c([H])c2c(N([H])C3([H])C([H])([H])C([H])([H])N(C([H])(C([H])([H])[H])C([H])([H])[H])C([H])([H])C3([H])[H])nc(N3C([H])([H])C([H])([H])C([H])([H])C([H])([H])C([H])([H])C3([H])[H])nc12


 39 43  0  0  0  0  0  0  0  0999 V2000
   39.2884  -21.5398   39.6251 C   0  0  0  0  0  0  0  0  0  0  0  0
   39.2407  -21.2025   38.2821 C   0  0  0  0  0  0  0  0  0  0  0  0
   38.0637  -20.8304   37.6789 C   0  0  0  0  0  0  0  0  0  0  0  0
   38.0319  -20.4976   36.3412 C   0  0  0  0  0  0  0  0  0  0  0  0
   36.8160  -20.1488   35.8625 N   0  0  0  0  0  0  0  0  0  0  0  0
   35.7010  -20.1121   36.5836 C   0  0  0  0  0  0  0  0  0  0  0  0
   35.7715  -20.4425   37.8811 N   0  0  0  0  0  0  0  0  0  0  0  0
   36.9214  -20.8060   38.4713 C   0  0  0  0  0  0  0  0  0  0  0  0
   36.9772  -21.1431   39.8073 C   0  0  0  0  0  0  0  0  0  0  0  0
   38.1404  -21.5151   40.4208 C   0  0  0  0  0  0  0  0  0  0  0  0
   34.4303  -19.7381   36.0431 N   0  0  0  0  0  0  0  0  0  0  0  0
   33.3455  -20.6728   36.1884 C   0  0  0  0  0  0  0  0  0  0  0  0
   32.0028  -20.0234   36.0676 C   0  0  0  0  0  0  0  0  0  0  0  0
   31.7955  -19.2417   34.8167 C   0  0  0  0  0  0  0  0  0  0  0  0
   32.8008  -19.5004   33.7435 C   0  0  0  0  0  0  0  0  0  0  0  0
   34.0706  -18.6885   33.9210 C   0  0  0  0  0  0  0  0  0  0  0  0
   34.3567  -18.4434   35.3931 C   0  0  0  0  0  0  0  0  0  0  0  0
   41.4905  -20.9437   40.3975 C   0  0  0  0  0  0  0  0  0  0  0  0
   40.4974  -21.9134   40.2088 O   0  0  0  0  0  0  0  0  0  0  0  0
   39.1654  -20.5068   35.5068 N   0  0  0  0  0  0  0  0  0  0  0  0
   39.1320  -21.0770   34.6063 H   0  0  0  0  0  0  0  0  0  0  0  0
   40.3925  -19.8194   35.7356 C   0  0  0  0  0  0  0  0  0  0  0  0
   40.6929  -18.6949   34.7638 C   0  0  0  0  0  0  0  0  0  0  0  0
   42.0895  -18.1986   35.1605 C   0  0  0  0  0  0  0  0  0  0  0  0
   42.5203  -18.7491   36.3995 N   0  0  0  0  0  0  0  0  0  0  0  0
   42.7970  -20.1474   36.2576 C   0  0  0  0  0  0  0  0  0  0  0  0
   41.5532  -20.7886   35.6215 C   0  0  0  0  0  0  0  0  0  0  0  0
   43.5403  -18.0162   37.0713 C   0  0  0  0  0  0  0  0  0  0  0  0
   43.5201  -16.5474   36.8133 C   0  0  0  0  0  0  0  0  0  0  0  0
   43.4374  -18.2261   38.5647 C   0  0  0  0  0  0  0  0  0  0  0  0
   38.2313  -21.8591   41.7590 O   0  0  0  0  0  0  0  0  0  0  0  0
   38.3676  -20.8881   42.7770 C   0  0  0  0  0  0  0  0  0  0  0  0
   37.3807  -21.0901   43.8921 C   0  0  0  0  0  0  0  0  0  0  0  0
   36.1762  -21.8931   43.4063 C   0  0  0  0  0  0  0  0  0  0  0  0
   34.9998  -21.1461   43.7339 N   0  0  0  0  0  0  0  0  0  0  0  0
   35.3305  -19.7765   43.9631 C   0  0  0  0  0  0  0  0  0  0  0  0
   34.5136  -18.9494   42.9865 C   0  0  0  0  0  0  0  0  0  0  0  0
   34.2124  -19.9807   41.9024 C   0  0  0  0  0  0  0  0  0  0  0  0
   33.9783  -21.2119   42.7384 C   0  0  0  0  0  0  0  0  0  0  0  0
 18 19  1  0  0  0
 19  1  1  0  0  0
  1  2  2  0  0  0
  2  3  1  0  0  0
  3  4  2  0  0  0
  4 20  1  0  0  0
 20 22  1  0  0  0
 22 23  1  0  0  0
 23 24  1  0  0  0
 24 25  1  0  0  0
 25 26  1  0  0  0
 26 27  1  0  0  0
 25 28  1  0  0  0
 28 29  1  0  0  0
 28 30  1  0  0  0
  4  5  1  0  0  0
  5  6  2  0  0  0
  6  7  1  0  0  0
  7  8  2  0  0  0
  8  9  1  0  0  0
  9 10  2  0  0  0
 10 31  1  0  0  0
 31 32  1  0  0  0
 32 33  1  0  0  0
 33 34  1  0  0  0
 34 35  1  0  0  0
 35 36  1  0  0  0
 36 37  1  0  0  0
 37 38  1  0  0  0
 38 39  1  0  0  0
  6 11  1  0  0  0
 11 12  1  0  0  0
 12 13  1  0  0  0
 13 14  1  0  0  0
 14 15  1  0  0  0
 15 16  1  0  0  0
 16 17  1  0  0  0
 10  1  1  0  0  0
 39 35  1  0  0  0
 17 11  1  0  0  0
  8  3  1  0  0  0
 27 22  1  0  0  0
 20 21  1  0  0  0
M  END
> <minimizedAffinity>
-4.94090

> <CNNscore>
0.2228198349

> <CNNaffinity>
5.9164924622

> <CNN_VS>
1.3183119297

> <CNNaffinity_variance>
0.2996388078

$$$$
[H]c1c(OC([H])([H])C([H])([H])C([H])([H])N2C([H])([H])C([H])([H])C([H])([H])C2([H])[H])c(OC([H])([H])[H])c([H])c2c(N([H])C3([H])C([H])([H])C([H])([H])N(C([H])(C([H])([H])[H])C([H])([H])[H])C([H])([H])C3([H])[H])nc(C3([H])C([H])([H])C([H])([H])OC([H])([H])C3([H])[H])nc12


 38 42  0  0  0  0  0  0  0  0999 V2000
   36.0879  -14.0620   36.7679 C   0  0  0  0  0  0  0  0  0  0  0  0
   36.5440  -15.2737   36.2468 C   0  0  0  0  0  0  0  0  0  0  0  0
   35.6995  -16.2539   35.7886 C   0  0  0  0  0  0  0  0  0  0  0  0
   36.1354  -17.4548   35.2739 C   0  0  0  0  0  0  0  0  0  0  0  0
   35.2039  -18.3312   34.8612 N   0  0  0  0  0  0  0  0  0  0  0  0
   33.8926  -18.1001   34.9234 C   0  0  0  0  0  0  0  0  0  0  0  0
   33.4914  -16.9212   35.4293 N   0  0  0  0  0  0  0  0  0  0  0  0
   34.3298  -15.9668   35.8735 C   0  0  0  0  0  0  0  0  0  0  0  0
   33.8739  -14.7725   36.3866 C   0  0  0  0  0  0  0  0  0  0  0  0
   34.7387  -13.8056   36.8398 C   0  0  0  0  0  0  0  0  0  0  0  0
   32.8848  -19.0804   34.4664 C   0  0  0  0  0  0  0  0  0  0  0  0
   33.2520  -20.5052   34.7701 C   0  0  0  0  0  0  0  0  0  0  0  0
   32.0756  -21.3764   34.3547 C   0  0  0  0  0  0  0  0  0  0  0  0
   30.9566  -21.0538   35.1041 O   0  0  0  0  0  0  0  0  0  0  0  0
   30.5290  -19.7680   34.7550 C   0  0  0  0  0  0  0  0  0  0  0  0
   31.5918  -18.7675   35.1927 C   0  0  0  0  0  0  0  0  0  0  0  0
   38.2678  -13.4651   37.7255 C   0  0  0  0  0  0  0  0  0  0  0  0
   36.9840  -13.1058   37.2177 O   0  0  0  0  0  0  0  0  0  0  0  0
   37.4954  -17.7472   35.1959 N   0  0  0  0  0  0  0  0  0  0  0  0
   38.1934  -17.0141   34.9765 H   0  0  0  0  0  0  0  0  0  0  0  0
   38.0579  -19.0724   35.4082 C   0  0  0  0  0  0  0  0  0  0  0  0
   39.1064  -19.0380   36.5270 C   0  0  0  0  0  0  0  0  0  0  0  0
   40.4865  -19.3618   36.0051 C   0  0  0  0  0  0  0  0  0  0  0  0
   40.7462  -18.5487   34.8543 N   0  0  0  0  0  0  0  0  0  0  0  0
   39.9004  -18.8993   33.7267 C   0  0  0  0  0  0  0  0  0  0  0  0
   38.6791  -19.6700   34.1842 C   0  0  0  0  0  0  0  0  0  0  0  0
   42.1455  -18.4736   34.5141 C   0  0  0  0  0  0  0  0  0  0  0  0
   42.9324  -19.6763   34.9481 C   0  0  0  0  0  0  0  0  0  0  0  0
   42.7147  -17.2352   35.1708 C   0  0  0  0  0  0  0  0  0  0  0  0
   34.2920  -12.5915   37.3621 O   0  0  0  0  0  0  0  0  0  0  0  0
   33.1307  -12.5425   38.1728 C   0  0  0  0  0  0  0  0  0  0  0  0
   32.1600  -11.4939   37.6728 C   0  0  0  0  0  0  0  0  0  0  0  0
   30.7630  -11.9889   37.5870 C   0  0  0  0  0  0  0  0  0  0  0  0
   29.7609  -10.9798   37.3713 N   0  0  0  0  0  0  0  0  0  0  0  0
   30.1100   -9.7338   38.0329 C   0  0  0  0  0  0  0  0  0  0  0  0
   28.9894   -9.3721   38.9664 C   0  0  0  0  0  0  0  0  0  0  0  0
   28.2810  -10.6876   39.1834 C   0  0  0  0  0  0  0  0  0  0  0  0
   28.4554  -11.3345   37.8207 C   0  0  0  0  0  0  0  0  0  0  0  0
 17 18  1  0  0  0
 18  1  1  0  0  0
  1  2  2  0  0  0
  2  3  1  0  0  0
  3  4  2  0  0  0
  4 19  1  0  0  0
 19 21  1  0  0  0
 21 22  1  0  0  0
 22 23  1  0  0  0
 23 24  1  0  0  0
 24 25  1  0  0  0
 25 26  1  0  0  0
 24 27  1  0  0  0
 27 28  1  0  0  0
 27 29  1  0  0  0
  4  5  1  0  0  0
  5  6  2  0  0  0
  6  7  1  0  0  0
  7  8  2  0  0  0
  8  9  1  0  0  0
  9 10  2  0  0  0
 10 30  1  0  0  0
 30 31  1  0  0  0
 31 32  1  0  0  0
 32 33  1  0  0  0
 33 34  1  0  0  0
 34 35  1  0  0  0
 35 36  1  0  0  0
 36 37  1  0  0  0
 37 38  1  0  0  0
  6 11  1  0  0  0
 11 12  1  0  0  0
 12 13  1  0  0  0
 13 14  1  0  0  0
 14 15  1  0  0  0
 15 16  1  0  0  0
 10  1  1  0  0  0
 38 34  1  0  0  0
 16 11  1  0  0  0
  8  3  1  0  0  0
 26 21  1  0  0  0
 19 20  1  0  0  0
M  END
> <minimizedAffinity>
-8.93581

> <CNNscore>
0.8378889561

> <CNNaffinity>
7.3284616470

> <CNN_VS>
6.1404371262

> <CNNaffinity_variance>
0.1034651995

$$$$
[H]c1c(OC([H])([H])C([H])([H])C([H])([H])N2C([H])([H])C([H])([H])C([H])([H])C2([H])[H])c(OC([H])([H])[H])c([H])c2c(N([H])C3([H])C([H])([H])C([H])([H])N(C([H])(C([H])([H])[H])C([H])([H])[H])C([H])([H])C3([H])[H])nc(C3([H])C([H])([H])C([H])([H])OC([H])([H])C3([H])[H])nc12


 38 42  0  0  0  0  0  0  0  0999 V2000
   36.0363  -13.9681   36.8432 C   0  0  0  0  0  0  0  0  0  0  0  0
   36.5061  -15.2189   36.4400 C   0  0  0  0  0  0  0  0  0  0  0  0
   35.6833  -16.2034   35.9524 C   0  0  0  0  0  0  0  0  0  0  0  0
   36.1327  -17.4425   35.5529 C   0  0  0  0  0  0  0  0  0  0  0  0
   35.2218  -18.3186   35.0958 N   0  0  0  0  0  0  0  0  0  0  0  0
   33.9186  -18.0525   35.0098 C   0  0  0  0  0  0  0  0  0  0  0  0
   33.5038  -16.8367   35.4054 N   0  0  0  0  0  0  0  0  0  0  0  0
   34.3213  -15.8786   35.8798 C   0  0  0  0  0  0  0  0  0  0  0  0
   33.8520  -14.6456   36.2761 C   0  0  0  0  0  0  0  0  0  0  0  0
   34.6952  -13.6753   36.7615 C   0  0  0  0  0  0  0  0  0  0  0  0
   32.9332  -19.0330   34.5067 C   0  0  0  0  0  0  0  0  0  0  0  0
   33.3074  -20.4601   34.7903 C   0  0  0  0  0  0  0  0  0  0  0  0
   32.1512  -21.3341   34.3266 C   0  0  0  0  0  0  0  0  0  0  0  0
   31.0100  -21.0383   35.0533 O   0  0  0  0  0  0  0  0  0  0  0  0
   30.5781  -19.7499   34.7198 C   0  0  0  0  0  0  0  0  0  0  0  0
   31.6187  -18.7482   35.2056 C   0  0  0  0  0  0  0  0  0  0  0  0
   38.3043  -13.2755   37.4771 C   0  0  0  0  0  0  0  0  0  0  0  0
   36.9106  -13.0094   37.3290 O   0  0  0  0  0  0  0  0  0  0  0  0
   37.4842  -17.7720   35.6317 N   0  0  0  0  0  0  0  0  0  0  0  0
   38.1634  -17.4373   34.9248 H   0  0  0  0  0  0  0  0  0  0  0  0
   38.0627  -18.5951   36.6829 C   0  0  0  0  0  0  0  0  0  0  0  0
   39.5923  -18.6125   36.5711 C   0  0  0  0  0  0  0  0  0  0  0  0
   40.1100  -19.9938   36.2458 C   0  0  0  0  0  0  0  0  0  0  0  0
   39.3769  -20.5088   35.1275 N   0  0  0  0  0  0  0  0  0  0  0  0
   37.9851  -20.7697   35.4510 C   0  0  0  0  0  0  0  0  0  0  0  0
   37.5645  -20.0069   36.6903 C   0  0  0  0  0  0  0  0  0  0  0  0
   40.0292  -21.6214   34.4826 C   0  0  0  0  0  0  0  0  0  0  0  0
   39.1968  -22.8707   34.4576 C   0  0  0  0  0  0  0  0  0  0  0  0
   41.3211  -21.8914   35.2221 C   0  0  0  0  0  0  0  0  0  0  0  0
   34.2346  -12.4222   37.1668 O   0  0  0  0  0  0  0  0  0  0  0  0
   33.0992  -12.3121   38.0075 C   0  0  0  0  0  0  0  0  0  0  0  0
   31.8177  -12.3632   37.2034 C   0  0  0  0  0  0  0  0  0  0  0  0
   30.9488  -11.1787   37.4182 C   0  0  0  0  0  0  0  0  0  0  0  0
   30.1053  -11.2327   38.5820 N   0  0  0  0  0  0  0  0  0  0  0  0
   29.6207  -12.5811   38.8254 C   0  0  0  0  0  0  0  0  0  0  0  0
   28.1187  -12.5400   38.8441 C   0  0  0  0  0  0  0  0  0  0  0  0
   27.7976  -11.2665   38.0995 C   0  0  0  0  0  0  0  0  0  0  0  0
   28.9598  -10.3862   38.5242 C   0  0  0  0  0  0  0  0  0  0  0  0
 17 18  1  0  0  0
 18  1  1  0  0  0
  1  2  2  0  0  0
  2  3  1  0  0  0
  3  4  2  0  0  0
  4 19  1  0  0  0
 19 21  1  0  0  0
 21 22  1  0  0  0
 22 23  1  0  0  0
 23 24  1  0  0  0
 24 25  1  0  0  0
 25 26  1  0  0  0
 24 27  1  0  0  0
 27 28  1  0  0  0
 27 29  1  0  0  0
  4  5  1  0  0  0
  5  6  2  0  0  0
  6  7  1  0  0  0
  7  8  2  0  0  0
  8  9  1  0  0  0
  9 10  2  0  0  0
 10 30  1  0  0  0
 30 31  1  0  0  0
 31 32  1  0  0  0
 32 33  1  0  0  0
 33 34  1  0  0  0
 34 35  1  0  0  0
 35 36  1  0  0  0
 36 37  1  0  0  0
 37 38  1  0  0  0
  6 11  1  0  0  0
 11 12  1  0  0  0
 12 13  1  0  0  0
 13 14  1  0  0  0
 14 15  1  0  0  0
 15 16  1  0  0  0
 10  1  1  0  0  0
 38 34  1  0  0  0
 16 11  1  0  0  0
  8  3  1  0  0  0
 26 21  1  0  0  0
 19 20  1  0  0  0
M  END
> <minimizedAffinity>
-8.28235

> <CNNscore>
0.7502954602

> <CNNaffinity>
7.2328443527

> <CNN_VS>
5.4267702103

> <CNNaffinity_variance>
0.0865637437

$$$$
[H]c1c(OC([H])([H])C([H])([H])C([H])([H])N2C([H])([H])C([H])([H])C([H])([H])C2([H])[H])c(OC([H])([H])[H])c([H])c2c(N([H])C3([H])C([H])([H])C([H])([H])N(C([H])(C([H])([H])[H])C([H])([H])[H])C([H])([H])C3([H])[H])nc(C3([H])C([H])([H])C([H])([H])OC([H])([H])C3([H])[H])nc12


 38 42  0  0  0  0  0  0  0  0999 V2000
   36.0786  -14.1522   36.6745 C   0  0  0  0  0  0  0  0  0  0  0  0
   36.5330  -15.3781   36.1863 C   0  0  0  0  0  0  0  0  0  0  0  0
   35.6870  -16.3711   35.7593 C   0  0  0  0  0  0  0  0  0  0  0  0
   36.1213  -17.5860   35.2773 C   0  0  0  0  0  0  0  0  0  0  0  0
   35.1884  -18.4740   34.8933 N   0  0  0  0  0  0  0  0  0  0  0  0
   33.8773  -18.2415   34.9541 C   0  0  0  0  0  0  0  0  0  0  0  0
   33.4777  -17.0488   35.4279 N   0  0  0  0  0  0  0  0  0  0  0  0
   34.3176  -16.0820   35.8416 C   0  0  0  0  0  0  0  0  0  0  0  0
   33.8634  -14.8737   36.3224 C   0  0  0  0  0  0  0  0  0  0  0  0
   34.7297  -13.8942   36.7445 C   0  0  0  0  0  0  0  0  0  0  0  0
   32.8680  -19.2346   34.5292 C   0  0  0  0  0  0  0  0  0  0  0  0
   33.2070  -20.6432   34.9267 C   0  0  0  0  0  0  0  0  0  0  0  0
   32.0295  -21.5228   34.5322 C   0  0  0  0  0  0  0  0  0  0  0  0
   30.8960  -21.1419   35.2307 O   0  0  0  0  0  0  0  0  0  0  0  0
   30.4960  -19.8740   34.7945 C   0  0  0  0  0  0  0  0  0  0  0  0
   31.5610  -18.8626   35.2005 C   0  0  0  0  0  0  0  0  0  0  0  0
   38.1985  -13.5283   37.7433 C   0  0  0  0  0  0  0  0  0  0  0  0
   36.9762  -13.1835   37.0935 O   0  0  0  0  0  0  0  0  0  0  0  0
   37.4811  -17.8803   35.2022 N   0  0  0  0  0  0  0  0  0  0  0  0
   38.2002  -17.1704   35.4296 H   0  0  0  0  0  0  0  0  0  0  0  0
   38.0144  -19.1757   34.8084 C   0  0  0  0  0  0  0  0  0  0  0  0
   37.9176  -20.1721   35.9703 C   0  0  0  0  0  0  0  0  0  0  0  0
   39.2845  -20.6003   36.4503 C   0  0  0  0  0  0  0  0  0  0  0  0
   40.0826  -19.4308   36.6699 N   0  0  0  0  0  0  0  0  0  0  0  0
   40.3945  -18.7336   35.4344 C   0  0  0  0  0  0  0  0  0  0  0  0
   39.4329  -19.1275   34.3322 C   0  0  0  0  0  0  0  0  0  0  0  0
   41.2416  -19.6783   37.4914 C   0  0  0  0  0  0  0  0  0  0  0  0
   42.2559  -20.5743   36.8413 C   0  0  0  0  0  0  0  0  0  0  0  0
   40.7668  -20.3084   38.7823 C   0  0  0  0  0  0  0  0  0  0  0  0
   34.2846  -12.6658   37.2340 O   0  0  0  0  0  0  0  0  0  0  0  0
   33.1923  -12.6050   38.1346 C   0  0  0  0  0  0  0  0  0  0  0  0
   32.2424  -11.4856   37.7655 C   0  0  0  0  0  0  0  0  0  0  0  0
   30.8592  -11.9586   37.5063 C   0  0  0  0  0  0  0  0  0  0  0  0
   29.8850  -10.9260   37.2749 N   0  0  0  0  0  0  0  0  0  0  0  0
   30.2810   -9.6728   37.8950 C   0  0  0  0  0  0  0  0  0  0  0  0
   29.1855   -9.2503   38.8327 C   0  0  0  0  0  0  0  0  0  0  0  0
   28.4411  -10.5368   39.0977 C   0  0  0  0  0  0  0  0  0  0  0  0
   28.5761  -11.2277   37.7522 C   0  0  0  0  0  0  0  0  0  0  0  0
 17 18  1  0  0  0
 18  1  1  0  0  0
  1  2  2  0  0  0
  2  3  1  0  0  0
  3  4  2  0  0  0
  4 19  1  0  0  0
 19 21  1  0  0  0
 21 22  1  0  0  0
 22 23  1  0  0  0
 23 24  1  0  0  0
 24 25  1  0  0  0
 25 26  1  0  0  0
 24 27  1  0  0  0
 27 28  1  0  0  0
 27 29  1  0  0  0
  4  5  1  0  0  0
  5  6  2  0  0  0
  6  7  1  0  0  0
  7  8  2  0  0  0
  8  9  1  0  0  0
  9 10  2  0  0  0
 10 30  1  0  0  0
 30 31  1  0  0  0
 31 32  1  0  0  0
 32 33  1  0  0  0
 33 34  1  0  0  0
 34 35  1  0  0  0
 35 36  1  0  0  0
 36 37  1  0  0  0
 37 38  1  0  0  0
  6 11  1  0  0  0
 11 12  1  0  0  0
 12 13  1  0  0  0
 13 14  1  0  0  0
 14 15  1  0  0  0
 15 16  1  0  0  0
 10  1  1  0  0  0
 38 34  1  0  0  0
 16 11  1  0  0  0
  8  3  1  0  0  0
 26 21  1  0  0  0
 19 20  1  0  0  0
M  END
> <minimizedAffinity>
-8.44383

> <CNNscore>
0.7441390753

> <CNNaffinity>
7.2194619179

> <CNN_VS>
5.3722839355

> <CNNaffinity_variance>
0.0827181488

$$$$
[H]c1c(OC([H])([H])C([H])([H])C([H])([H])N2C([H])([H])C([H])([H])C([H])([H])C2([H])[H])c(OC([H])([H])[H])c([H])c2c(N([H])C3([H])C([H])([H])C([H])([H])N(C([H])(C([H])([H])[H])C([H])([H])[H])C([H])([H])C3([H])[H])nc(C3([H])C([H])([H])C([H])([H])OC([H])([H])C3([H])[H])nc12


 38 42  0  0  0  0  0  0  0  0999 V2000
   35.9361  -14.2838   36.9073 C   0  0  0  0  0  0  0  0  0  0  0  0
   36.4286  -15.5159   36.4748 C   0  0  0  0  0  0  0  0  0  0  0  0
   35.6237  -16.5037   35.9644 C   0  0  0  0  0  0  0  0  0  0  0  0
   36.0956  -17.7246   35.5359 C   0  0  0  0  0  0  0  0  0  0  0  0
   35.2008  -18.6064   35.0585 N   0  0  0  0  0  0  0  0  0  0  0  0
   33.8928  -18.3624   34.9791 C   0  0  0  0  0  0  0  0  0  0  0  0
   33.4560  -17.1641   35.4032 N   0  0  0  0  0  0  0  0  0  0  0  0
   34.2559  -16.2025   35.8998 C   0  0  0  0  0  0  0  0  0  0  0  0
   33.7642  -14.9880   36.3250 C   0  0  0  0  0  0  0  0  0  0  0  0
   34.5897  -14.0139   36.8328 C   0  0  0  0  0  0  0  0  0  0  0  0
   32.9253  -19.3488   34.4533 C   0  0  0  0  0  0  0  0  0  0  0  0
   33.2676  -20.7699   34.8009 C   0  0  0  0  0  0  0  0  0  0  0  0
   32.1286  -21.6470   34.3019 C   0  0  0  0  0  0  0  0  0  0  0  0
   30.9529  -21.3177   34.9555 O   0  0  0  0  0  0  0  0  0  0  0  0
   30.5543  -20.0363   34.5593 C   0  0  0  0  0  0  0  0  0  0  0  0
   31.5780  -19.0298   35.0701 C   0  0  0  0  0  0  0  0  0  0  0  0
   38.1805  -13.5853   37.6143 C   0  0  0  0  0  0  0  0  0  0  0  0
   36.7928  -13.3208   37.4153 O   0  0  0  0  0  0  0  0  0  0  0  0
   37.4530  -18.0309   35.6066 N   0  0  0  0  0  0  0  0  0  0  0  0
   38.1377  -17.6011   34.9590 H   0  0  0  0  0  0  0  0  0  0  0  0
   38.0306  -18.9578   36.5681 C   0  0  0  0  0  0  0  0  0  0  0  0
   39.5478  -18.7549   36.6653 C   0  0  0  0  0  0  0  0  0  0  0  0
   40.3030  -19.9695   36.1791 C   0  0  0  0  0  0  0  0  0  0  0  0
   39.7852  -20.3517   34.8989 N   0  0  0  0  0  0  0  0  0  0  0  0
   38.4224  -20.8480   34.9788 C   0  0  0  0  0  0  0  0  0  0  0  0
   37.7559  -20.3973   36.2623 C   0  0  0  0  0  0  0  0  0  0  0  0
   40.6669  -21.2263   34.1660 C   0  0  0  0  0  0  0  0  0  0  0  0
   40.7751  -22.6013   34.7592 C   0  0  0  0  0  0  0  0  0  0  0  0
   42.0354  -20.5820   34.1347 C   0  0  0  0  0  0  0  0  0  0  0  0
   34.1063  -12.7794   37.2674 O   0  0  0  0  0  0  0  0  0  0  0  0
   33.1739  -12.7079   38.3321 C   0  0  0  0  0  0  0  0  0  0  0  0
   31.7976  -12.3298   37.8276 C   0  0  0  0  0  0  0  0  0  0  0  0
   31.7970  -11.0860   37.0171 C   0  0  0  0  0  0  0  0  0  0  0  0
   32.3270   -9.9201   37.6719 N   0  0  0  0  0  0  0  0  0  0  0  0
   31.8365   -8.6970   37.0592 C   0  0  0  0  0  0  0  0  0  0  0  0
   33.0238   -7.8869   36.6209 C   0  0  0  0  0  0  0  0  0  0  0  0
   34.1295   -8.9113   36.5352 C   0  0  0  0  0  0  0  0  0  0  0  0
   33.7501   -9.8379   37.6768 C   0  0  0  0  0  0  0  0  0  0  0  0
 17 18  1  0  0  0
 18  1  1  0  0  0
  1  2  2  0  0  0
  2  3  1  0  0  0
  3  4  2  0  0  0
  4 19  1  0  0  0
 19 21  1  0  0  0
 21 22  1  0  0  0
 22 23  1  0  0  0
 23 24  1  0  0  0
 24 25  1  0  0  0
 25 26  1  0  0  0
 24 27  1  0  0  0
 27 28  1  0  0  0
 27 29  1  0  0  0
  4  5  1  0  0  0
  5  6  2  0  0  0
  6  7  1  0  0  0
  7  8  2  0  0  0
  8  9  1  0  0  0
  9 10  2  0  0  0
 10 30  1  0  0  0
 30 31  1  0  0  0
 31 32  1  0  0  0
 32 33  1  0  0  0
 33 34  1  0  0  0
 34 35  1  0  0  0
 35 36  1  0  0  0
 36 37  1  0  0  0
 37 38  1  0  0  0
  6 11  1  0  0  0
 11 12  1  0  0  0
 12 13  1  0  0  0
 13 14  1  0  0  0
 14 15  1  0  0  0
 15 16  1  0  0  0
 10  1  1  0  0  0
 38 34  1  0  0  0
 16 11  1  0  0  0
  8  3  1  0  0  0
 26 21  1  0  0  0
 19 20  1  0  0  0
M  END
> <minimizedAffinity>
-7.92779

> <CNNscore>
0.6623249650

> <CNNaffinity>
7.3465294838

> <CNN_VS>
4.8657898903

> <CNNaffinity_variance>
0.0172746833

$$$$
[H]c1c(OC([H])([H])C([H])([H])C([H])([H])N2C([H])([H])C([H])([H])C([H])([H])C2([H])[H])c(OC([H])([H])[H])c([H])c2c(N([H])C3([H])C([H])([H])C([H])([H])N(C([H])(C([H])([H])[H])C([H])([H])[H])C([H])([H])C3([H])[H])nc(C3([H])C([H])([H])C([H])([H])OC([H])([H])C3([H])[H])nc12


 38 42  0  0  0  0  0  0  0  0999 V2000
   36.0283  -14.2952   36.4667 C   0  0  0  0  0  0  0  0  0  0  0  0
   36.4401  -15.4796   35.8539 C   0  0  0  0  0  0  0  0  0  0  0  0
   35.5651  -16.4666   35.4743 C   0  0  0  0  0  0  0  0  0  0  0  0
   35.9574  -17.6408   34.8707 C   0  0  0  0  0  0  0  0  0  0  0  0
   34.9997  -18.5276   34.5505 N   0  0  0  0  0  0  0  0  0  0  0  0
   33.7023  -18.3310   34.7844 C   0  0  0  0  0  0  0  0  0  0  0  0
   33.3437  -17.1776   35.3742 N   0  0  0  0  0  0  0  0  0  0  0  0
   34.2114  -16.2161   35.7399 C   0  0  0  0  0  0  0  0  0  0  0  0
   33.7992  -15.0489   36.3442 C   0  0  0  0  0  0  0  0  0  0  0  0
   34.6940  -14.0745   36.7158 C   0  0  0  0  0  0  0  0  0  0  0  0
   32.6655  -19.3222   34.4266 C   0  0  0  0  0  0  0  0  0  0  0  0
   33.1006  -20.7460   34.6285 C   0  0  0  0  0  0  0  0  0  0  0  0
   31.8996  -21.6340   34.3377 C   0  0  0  0  0  0  0  0  0  0  0  0
   30.8810  -21.3662   35.2367 O   0  0  0  0  0  0  0  0  0  0  0  0
   30.3832  -20.0815   34.9926 C   0  0  0  0  0  0  0  0  0  0  0  0
   31.4715  -19.0679   35.3250 C   0  0  0  0  0  0  0  0  0  0  0  0
   38.0760  -13.6447   37.6537 C   0  0  0  0  0  0  0  0  0  0  0  0
   36.9539  -13.3307   36.8307 O   0  0  0  0  0  0  0  0  0  0  0  0
   37.3025  -17.8971   34.6130 N   0  0  0  0  0  0  0  0  0  0  0  0
   37.7510  -17.5904   33.7312 H   0  0  0  0  0  0  0  0  0  0  0  0
   38.1883  -18.6007   35.5283 C   0  0  0  0  0  0  0  0  0  0  0  0
   38.1450  -20.1108   35.2633 C   0  0  0  0  0  0  0  0  0  0  0  0
   37.5678  -20.8647   36.4383 C   0  0  0  0  0  0  0  0  0  0  0  0
   36.3357  -20.2432   36.8238 N   0  0  0  0  0  0  0  0  0  0  0  0
   36.5353  -18.9154   37.3779 C   0  0  0  0  0  0  0  0  0  0  0  0
   37.8840  -18.3565   36.9737 C   0  0  0  0  0  0  0  0  0  0  0  0
   35.5071  -21.0857   37.6503 C   0  0  0  0  0  0  0  0  0  0  0  0
   35.2605  -22.4448   37.0619 C   0  0  0  0  0  0  0  0  0  0  0  0
   34.1858  -20.3774   37.8536 C   0  0  0  0  0  0  0  0  0  0  0  0
   34.2916  -12.8875   37.3288 O   0  0  0  0  0  0  0  0  0  0  0  0
   33.1560  -12.8662   38.1761 C   0  0  0  0  0  0  0  0  0  0  0  0
   32.2621  -11.6858   37.8609 C   0  0  0  0  0  0  0  0  0  0  0  0
   30.8381  -12.0662   37.6831 C   0  0  0  0  0  0  0  0  0  0  0  0
   29.9514  -10.9932   37.3207 N   0  0  0  0  0  0  0  0  0  0  0  0
   30.3709   -9.7338   37.9124 C   0  0  0  0  0  0  0  0  0  0  0  0
   29.2296   -9.2010   38.7319 C   0  0  0  0  0  0  0  0  0  0  0  0
   28.3884  -10.4273   38.9929 C   0  0  0  0  0  0  0  0  0  0  0  0
   28.5915  -11.1942   37.6981 C   0  0  0  0  0  0  0  0  0  0  0  0
 17 18  1  0  0  0
 18  1  1  0  0  0
  1  2  2  0  0  0
  2  3  1  0  0  0
  3  4  2  0  0  0
  4 19  1  0  0  0
 19 21  1  0  0  0
 21 22  1  0  0  0
 22 23  1  0  0  0
 23 24  1  0  0  0
 24 25  1  0  0  0
 25 26  1  0  0  0
 24 27  1  0  0  0
 27 28  1  0  0  0
 27 29  1  0  0  0
  4  5  1  0  0  0
  5  6  2  0  0  0
  6  7  1  0  0  0
  7  8  2  0  0  0
  8  9  1  0  0  0
  9 10  2  0  0  0
 10 30  1  0  0  0
 30 31  1  0  0  0
 31 32  1  0  0  0
 32 33  1  0  0  0
 33 34  1  0  0  0
 34 35  1  0  0  0
 35 36  1  0  0  0
 36 37  1  0  0  0
 37 38  1  0  0  0
  6 11  1  0  0  0
 11 12  1  0  0  0
 12 13  1  0  0  0
 13 14  1  0  0  0
 14 15  1  0  0  0
 15 16  1  0  0  0
 10  1  1  0  0  0
 38 34  1  0  0  0
 16 11  1  0  0  0
  8  3  1  0  0  0
 26 21  1  0  0  0
 19 20  1  0  0  0
M  END
> <minimizedAffinity>
-8.08949

> <CNNscore>
0.6367553473

> <CNNaffinity>
7.0959405899

> <CNN_VS>
4.5183782578

> <CNNaffinity_variance>
0.1467681229

$$$$
[H]c1c(OC([H])([H])C([H])([H])C([H])([H])N2C([H])([H])C([H])([H])C([H])([H])C2([H])[H])c(OC([H])([H])[H])c([H])c2c(N([H])C3([H])C([H])([H])C([H])([H])N(C([H])(C([H])([H])[H])C([H])([H])[H])C([H])([H])C3([H])[H])nc(C3([H])C([H])([H])C([H])([H])OC([H])([H])C3([H])[H])nc12


 38 42  0  0  0  0  0  0  0  0999 V2000
   32.1114  -20.9867   34.8150 C   0  0  0  0  0  0  0  0  0  0  0  0
   33.4568  -20.6358   34.9362 C   0  0  0  0  0  0  0  0  0  0  0  0
   33.8731  -19.3537   35.1948 C   0  0  0  0  0  0  0  0  0  0  0  0
   35.1969  -18.9929   35.3149 C   0  0  0  0  0  0  0  0  0  0  0  0
   35.4708  -17.7016   35.5673 N   0  0  0  0  0  0  0  0  0  0  0  0
   34.5363  -16.7613   35.7062 C   0  0  0  0  0  0  0  0  0  0  0  0
   33.2516  -17.1375   35.5849 N   0  0  0  0  0  0  0  0  0  0  0  0
   32.8558  -18.3990   35.3333 C   0  0  0  0  0  0  0  0  0  0  0  0
   31.5263  -18.7396   35.2149 C   0  0  0  0  0  0  0  0  0  0  0  0
   31.1332  -20.0305   34.9554 C   0  0  0  0  0  0  0  0  0  0  0  0
   34.8604  -15.3453   35.9803 C   0  0  0  0  0  0  0  0  0  0  0  0
   33.6646  -14.5174   36.3570 C   0  0  0  0  0  0  0  0  0  0  0  0
   34.1696  -13.1296   36.7237 C   0  0  0  0  0  0  0  0  0  0  0  0
   35.0039  -13.2030   37.8266 O   0  0  0  0  0  0  0  0  0  0  0  0
   36.1773  -13.8751   37.4670 C   0  0  0  0  0  0  0  0  0  0  0  0
   35.8284  -15.3234   37.1466 C   0  0  0  0  0  0  0  0  0  0  0  0
   32.1159  -23.3650   35.4226 C   0  0  0  0  0  0  0  0  0  0  0  0
   31.7452  -22.2969   34.5526 O   0  0  0  0  0  0  0  0  0  0  0  0
   36.2110  -19.9372   35.1694 N   0  0  0  0  0  0  0  0  0  0  0  0
   35.9976  -20.9412   35.0304 H   0  0  0  0  0  0  0  0  0  0  0  0
   37.6308  -19.6197   35.1970 C   0  0  0  0  0  0  0  0  0  0  0  0
   38.3228  -20.1424   33.9321 C   0  0  0  0  0  0  0  0  0  0  0  0
   39.3290  -21.2219   34.2550 C   0  0  0  0  0  0  0  0  0  0  0  0
   38.7028  -22.1982   35.0964 N   0  0  0  0  0  0  0  0  0  0  0  0
   38.3831  -21.6716   36.4118 C   0  0  0  0  0  0  0  0  0  0  0  0
   38.3486  -20.1573   36.3958 C   0  0  0  0  0  0  0  0  0  0  0  0
   39.4154  -23.4509   35.1430 C   0  0  0  0  0  0  0  0  0  0  0  0
   39.4033  -24.1953   33.8391 C   0  0  0  0  0  0  0  0  0  0  0  0
   38.7782  -24.3052   36.2167 C   0  0  0  0  0  0  0  0  0  0  0  0
   29.7909  -20.3905   34.8327 O   0  0  0  0  0  0  0  0  0  0  0  0
   29.2056  -21.3022   35.7461 C   0  0  0  0  0  0  0  0  0  0  0  0
   28.4810  -20.5724   36.8569 C   0  0  0  0  0  0  0  0  0  0  0  0
   27.6913  -21.4779   37.7290 C   0  0  0  0  0  0  0  0  0  0  0  0
   28.2525  -21.7300   39.0291 N   0  0  0  0  0  0  0  0  0  0  0  0
   28.9663  -22.9955   39.0639 C   0  0  0  0  0  0  0  0  0  0  0  0
   28.3631  -23.8409   40.1500 C   0  0  0  0  0  0  0  0  0  0  0  0
   26.9972  -23.2287   40.3472 C   0  0  0  0  0  0  0  0  0  0  0  0
   27.3007  -21.7632   40.0898 C   0  0  0  0  0  0  0  0  0  0  0  0
 17 18  1  0  0  0
 18  1  1  0  0  0
  1  2  2  0  0  0
  2  3  1  0  0  0
  3  4  2  0  0  0
  4 19  1  0  0  0
 19 21  1  0  0  0
 21 22  1  0  0  0
 22 23  1  0  0  0
 23 24  1  0  0  0
 24 25  1  0  0  0
 25 26  1  0  0  0
 24 27  1  0  0  0
 27 28  1  0  0  0
 27 29  1  0  0  0
  4  5  1  0  0  0
  5  6  2  0  0  0
  6  7  1  0  0  0
  7  8  2  0  0  0
  8  9  1  0  0  0
  9 10  2  0  0  0
 10 30  1  0  0  0
 30 31  1  0  0  0
 31 32  1  0  0  0
 32 33  1  0  0  0
 33 34  1  0  0  0
 34 35  1  0  0  0
 35 36  1  0  0  0
 36 37  1  0  0  0
 37 38  1  0  0  0
  6 11  1  0  0  0
 11 12  1  0  0  0
 12 13  1  0  0  0
 13 14  1  0  0  0
 14 15  1  0  0  0
 15 16  1  0  0  0
 10  1  1  0  0  0
 38 34  1  0  0  0
 16 11  1  0  0  0
  8  3  1  0  0  0
 26 21  1  0  0  0
 19 20  1  0  0  0
M  END
> <minimizedAffinity>
-6.23726

> <CNNscore>
0.4506186247

> <CNNaffinity>
6.1199731827

> <CNN_VS>
2.7577738762

> <CNNaffinity_variance>
0.2625264227

$$$$
[H]c1c(OC([H])([H])C([H])([H])C([H])([H])N2C([H])([H])C([H])([H])C([H])([H])C2([H])[H])c(OC([H])([H])[H])c([H])c2c(N([H])C3([H])C([H])([H])C([H])([H])N(C([H])(C([H])([H])[H])C([H])([H])[H])C([H])([H])C3([H])[H])nc(C3([H])C([H])([H])C([H])([H])OC([H])([H])C3([H])[H])nc12


 38 42  0  0  0  0  0  0  0  0999 V2000
   34.0685  -14.4125   36.4486 C   0  0  0  0  0  0  0  0  0  0  0  0
   33.7724  -15.7591   36.2322 C   0  0  0  0  0  0  0  0  0  0  0  0
   34.7307  -16.6951   35.9329 C   0  0  0  0  0  0  0  0  0  0  0  0
   34.4527  -18.0263   35.7150 C   0  0  0  0  0  0  0  0  0  0  0  0
   35.4833  -18.8396   35.4274 N   0  0  0  0  0  0  0  0  0  0  0  0
   36.7483  -18.4282   35.3433 C   0  0  0  0  0  0  0  0  0  0  0  0
   36.9949  -17.1248   35.5601 N   0  0  0  0  0  0  0  0  0  0  0  0
   36.0464  -16.2168   35.8552 C   0  0  0  0  0  0  0  0  0  0  0  0
   36.3445  -14.8889   36.0680 C   0  0  0  0  0  0  0  0  0  0  0  0
   35.3678  -13.9695   36.3664 C   0  0  0  0  0  0  0  0  0  0  0  0
   37.8667  -19.3401   35.0222 C   0  0  0  0  0  0  0  0  0  0  0  0
   38.3730  -19.1972   33.6149 C   0  0  0  0  0  0  0  0  0  0  0  0
   39.5878  -20.1027   33.4746 C   0  0  0  0  0  0  0  0  0  0  0  0
   40.5914  -19.6891   34.3346 O   0  0  0  0  0  0  0  0  0  0  0  0
   40.1847  -19.9178   35.6537 C   0  0  0  0  0  0  0  0  0  0  0  0
   39.0058  -19.0034   35.9637 C   0  0  0  0  0  0  0  0  0  0  0  0
   32.6818  -13.2320   38.0943 C   0  0  0  0  0  0  0  0  0  0  0  0
   33.0623  -13.5083   36.7475 O   0  0  0  0  0  0  0  0  0  0  0  0
   33.1455  -18.5037   35.7828 N   0  0  0  0  0  0  0  0  0  0  0  0
   32.5890  -18.4314   36.6534 H   0  0  0  0  0  0  0  0  0  0  0  0
   32.4491  -19.1340   34.6714 C   0  0  0  0  0  0  0  0  0  0  0  0
   30.9487  -18.8218   34.7312 C   0  0  0  0  0  0  0  0  0  0  0  0
   30.1304  -20.0696   34.9667 C   0  0  0  0  0  0  0  0  0  0  0  0
   30.6850  -20.7805   36.0804 N   0  0  0  0  0  0  0  0  0  0  0  0
   32.0000  -21.3247   35.7902 C   0  0  0  0  0  0  0  0  0  0  0  0
   32.6298  -20.6188   34.6070 C   0  0  0  0  0  0  0  0  0  0  0  0
   29.7796  -21.7509   36.6444 C   0  0  0  0  0  0  0  0  0  0  0  0
   29.4043  -22.8460   35.6883 C   0  0  0  0  0  0  0  0  0  0  0  0
   28.5320  -21.0173   37.0850 C   0  0  0  0  0  0  0  0  0  0  0  0
   35.6545  -12.6217   36.5843 O   0  0  0  0  0  0  0  0  0  0  0  0
   35.6285  -11.6991   35.5090 C   0  0  0  0  0  0  0  0  0  0  0  0
   35.9852  -10.3046   35.9777 C   0  0  0  0  0  0  0  0  0  0  0  0
   34.9468   -9.2966   35.6464 C   0  0  0  0  0  0  0  0  0  0  0  0
   34.2248   -8.7598   36.7686 N   0  0  0  0  0  0  0  0  0  0  0  0
   33.6585   -9.8158   37.5909 C   0  0  0  0  0  0  0  0  0  0  0  0
   32.1748   -9.5944   37.6768 C   0  0  0  0  0  0  0  0  0  0  0  0
   31.8851   -8.7204   36.4804 C   0  0  0  0  0  0  0  0  0  0  0  0
   33.1528   -7.8866   36.4216 C   0  0  0  0  0  0  0  0  0  0  0  0
 17 18  1  0  0  0
 18  1  1  0  0  0
  1  2  2  0  0  0
  2  3  1  0  0  0
  3  4  2  0  0  0
  4 19  1  0  0  0
 19 21  1  0  0  0
 21 22  1  0  0  0
 22 23  1  0  0  0
 23 24  1  0  0  0
 24 25  1  0  0  0
 25 26  1  0  0  0
 24 27  1  0  0  0
 27 28  1  0  0  0
 27 29  1  0  0  0
  4  5  1  0  0  0
  5  6  2  0  0  0
  6  7  1  0  0  0
  7  8  2  0  0  0
  8  9  1  0  0  0
  9 10  2  0  0  0
 10 30  1  0  0  0
 30 31  1  0  0  0
 31 32  1  0  0  0
 32 33  1  0  0  0
 33 34  1  0  0  0
 34 35  1  0  0  0
 35 36  1  0  0  0
 36 37  1  0  0  0
 37 38  1  0  0  0
  6 11  1  0  0  0
 11 12  1  0  0  0
 12 13  1  0  0  0
 13 14  1  0  0  0
 14 15  1  0  0  0
 15 16  1  0  0  0
 10  1  1  0  0  0
 38 34  1  0  0  0
 16 11  1  0  0  0
  8  3  1  0  0  0
 26 21  1  0  0  0
 19 20  1  0  0  0
M  END
> <minimizedAffinity>
-6.79634

> <CNNscore>
0.4318868220

> <CNNaffinity>
6.9632873535

> <CNN_VS>
3.0073521137

> <CNNaffinity_variance>
0.0354564860

$$$$
[H]c1c(OC([H])([H])C([H])([H])C([H])([H])N2C([H])([H])C([H])([H])C([H])([H])C2([H])[H])c(OC([H])([H])[H])c([H])c2c(N([H])C3([H])C([H])([H])C([H])([H])N(C([H])(C([H])([H])[H])C([H])([H])[H])C([H])([H])C3([H])[H])nc(C3([H])C([H])([H])C([H])([H])OC([H])([H])C3([H])[H])nc12


 38 42  0  0  0  0  0  0  0  0999 V2000
   36.0935  -22.0116   37.5724 C   0  0  0  0  0  0  0  0  0  0  0  0
   37.1331  -21.1881   37.1377 C   0  0  0  0  0  0  0  0  0  0  0  0
   36.9809  -19.8394   36.9331 C   0  0  0  0  0  0  0  0  0  0  0  0
   37.9970  -19.0153   36.5026 C   0  0  0  0  0  0  0  0  0  0  0  0
   37.7154  -17.7114   36.3392 N   0  0  0  0  0  0  0  0  0  0  0  0
   36.5152  -17.1798   36.5704 C   0  0  0  0  0  0  0  0  0  0  0  0
   35.5395  -18.0038   36.9899 N   0  0  0  0  0  0  0  0  0  0  0  0
   35.7020  -19.3248   37.1890 C   0  0  0  0  0  0  0  0  0  0  0  0
   34.6723  -20.1328   37.6184 C   0  0  0  0  0  0  0  0  0  0  0  0
   34.8485  -21.4812   37.8163 C   0  0  0  0  0  0  0  0  0  0  0  0
   36.2266  -15.7424   36.3807 C   0  0  0  0  0  0  0  0  0  0  0  0
   34.7590  -15.4217   36.3631 C   0  0  0  0  0  0  0  0  0  0  0  0
   34.6253  -13.9079   36.2842 C   0  0  0  0  0  0  0  0  0  0  0  0
   35.1780  -13.3220   37.4107 O   0  0  0  0  0  0  0  0  0  0  0  0
   36.5640  -13.5126   37.3905 C   0  0  0  0  0  0  0  0  0  0  0  0
   36.8518  -15.0009   37.5455 C   0  0  0  0  0  0  0  0  0  0  0  0
   36.3501  -24.2779   36.6650 C   0  0  0  0  0  0  0  0  0  0  0  0
   36.3010  -23.3682   37.7628 O   0  0  0  0  0  0  0  0  0  0  0  0
   39.2668  -19.5246   36.2388 N   0  0  0  0  0  0  0  0  0  0  0  0
   39.7246  -20.1935   36.8836 H   0  0  0  0  0  0  0  0  0  0  0  0
   40.0563  -19.1793   35.0662 C   0  0  0  0  0  0  0  0  0  0  0  0
   39.6990  -20.0955   33.8893 C   0  0  0  0  0  0  0  0  0  0  0  0
   40.8675  -20.9641   33.4867 C   0  0  0  0  0  0  0  0  0  0  0  0
   41.3955  -21.5976   34.6585 N   0  0  0  0  0  0  0  0  0  0  0  0
   42.0152  -20.6499   35.5683 C   0  0  0  0  0  0  0  0  0  0  0  0
   41.5350  -19.2400   35.2921 C   0  0  0  0  0  0  0  0  0  0  0  0
   42.2332  -22.7336   34.3632 C   0  0  0  0  0  0  0  0  0  0  0  0
   43.6194  -22.6183   34.9284 C   0  0  0  0  0  0  0  0  0  0  0  0
   42.3124  -22.8705   32.8586 C   0  0  0  0  0  0  0  0  0  0  0  0
   33.8153  -22.3120   38.2506 O   0  0  0  0  0  0  0  0  0  0  0  0
   32.9226  -22.8954   37.3175 C   0  0  0  0  0  0  0  0  0  0  0  0
   32.9532  -22.1557   35.9970 C   0  0  0  0  0  0  0  0  0  0  0  0
   31.6366  -21.5816   35.6216 C   0  0  0  0  0  0  0  0  0  0  0  0
   31.6685  -20.5863   34.5837 N   0  0  0  0  0  0  0  0  0  0  0  0
   33.0220  -20.3608   34.1047 C   0  0  0  0  0  0  0  0  0  0  0  0
   33.3391  -18.9018   34.2740 C   0  0  0  0  0  0  0  0  0  0  0  0
   32.3453  -18.4501   35.3169 C   0  0  0  0  0  0  0  0  0  0  0  0
   31.1480  -19.3150   34.9647 C   0  0  0  0  0  0  0  0  0  0  0  0
 17 18  1  0  0  0
 18  1  1  0  0  0
  1  2  2  0  0  0
  2  3  1  0  0  0
  3  4  2  0  0  0
  4 19  1  0  0  0
 19 21  1  0  0  0
 21 22  1  0  0  0
 22 23  1  0  0  0
 23 24  1  0  0  0
 24 25  1  0  0  0
 25 26  1  0  0  0
 24 27  1  0  0  0
 27 28  1  0  0  0
 27 29  1  0  0  0
  4  5  1  0  0  0
  5  6  2  0  0  0
  6  7  1  0  0  0
  7  8  2  0  0  0
  8  9  1  0  0  0
  9 10  2  0  0  0
 10 30  1  0  0  0
 30 31  1  0  0  0
 31 32  1  0  0  0
 32 33  1  0  0  0
 33 34  1  0  0  0
 34 35  1  0  0  0
 35 36  1  0  0  0
 36 37  1  0  0  0
 37 38  1  0  0  0
  6 11  1  0  0  0
 11 12  1  0  0  0
 12 13  1  0  0  0
 13 14  1  0  0  0
 14 15  1  0  0  0
 15 16  1  0  0  0
 10  1  1  0  0  0
 38 34  1  0  0  0
 16 11  1  0  0  0
  8  3  1  0  0  0
 26 21  1  0  0  0
 19 20  1  0  0  0
M  END
> <minimizedAffinity>
-6.10597

> <CNNscore>
0.2816706598

> <CNNaffinity>
6.2686138153

> <CNN_VS>
1.7656846046

> <CNNaffinity_variance>
0.3101649880

$$$$
[H]c1c(OC([H])([H])C([H])([H])C([H])([H])N2C([H])([H])C([H])([H])C([H])([H])C2([H])[H])c(OC([H])([H])[H])c([H])c2c(N([H])C3([H])C([H])([H])C([H])([H])N(C([H])(C([H])([H])[H])C([H])([H])[H])C([H])([H])C3([H])[H])nc(C3([H])C([H])([H])C([H])([H])OC([H])([H])C3([H])[H])nc12


 38 42  0  0  0  0  0  0  0  0999 V2000
   37.5226  -20.2299   36.1476 C   0  0  0  0  0  0  0  0  0  0  0  0
   36.1624  -19.9190   36.1175 C   0  0  0  0  0  0  0  0  0  0  0  0
   35.6922  -18.6300   36.0802 C   0  0  0  0  0  0  0  0  0  0  0  0
   34.3532  -18.3087   36.0523 C   0  0  0  0  0  0  0  0  0  0  0  0
   34.0252  -17.0058   36.0192 N   0  0  0  0  0  0  0  0  0  0  0  0
   34.9203  -16.0182   36.0118 C   0  0  0  0  0  0  0  0  0  0  0  0
   36.2209  -16.3565   36.0393 N   0  0  0  0  0  0  0  0  0  0  0  0
   36.6696  -17.6249   36.0736 C   0  0  0  0  0  0  0  0  0  0  0  0
   38.0135  -17.9258   36.1029 C   0  0  0  0  0  0  0  0  0  0  0  0
   38.4608  -19.2245   36.1402 C   0  0  0  0  0  0  0  0  0  0  0  0
   34.5369  -14.5909   35.9786 C   0  0  0  0  0  0  0  0  0  0  0  0
   33.4877  -14.2272   36.9906 C   0  0  0  0  0  0  0  0  0  0  0  0
   33.2892  -12.7202   36.9181 C   0  0  0  0  0  0  0  0  0  0  0  0
   34.4613  -12.0687   37.2636 O   0  0  0  0  0  0  0  0  0  0  0  0
   35.4222  -12.3030   36.2739 C   0  0  0  0  0  0  0  0  0  0  0  0
   35.7820  -13.7837   36.2874 C   0  0  0  0  0  0  0  0  0  0  0  0
   38.3893  -22.1570   37.3966 C   0  0  0  0  0  0  0  0  0  0  0  0
   37.9439  -21.5492   36.1853 O   0  0  0  0  0  0  0  0  0  0  0  0
   33.3788  -19.3045   36.0676 N   0  0  0  0  0  0  0  0  0  0  0  0
   33.2039  -19.8754   36.9139 H   0  0  0  0  0  0  0  0  0  0  0  0
   32.5329  -19.6349   34.9306 C   0  0  0  0  0  0  0  0  0  0  0  0
   31.1721  -18.9381   35.0532 C   0  0  0  0  0  0  0  0  0  0  0  0
   30.0496  -19.9358   35.2156 C   0  0  0  0  0  0  0  0  0  0  0  0
   30.3981  -20.8554   36.2577 N   0  0  0  0  0  0  0  0  0  0  0  0
   31.5168  -21.7071   35.8930 C   0  0  0  0  0  0  0  0  0  0  0  0
   32.3071  -21.1038   34.7501 C   0  0  0  0  0  0  0  0  0  0  0  0
   29.2680  -21.5896   36.7708 C   0  0  0  0  0  0  0  0  0  0  0  0
   29.6319  -22.5773   37.8415 C   0  0  0  0  0  0  0  0  0  0  0  0
   28.6251  -22.3178   35.6110 C   0  0  0  0  0  0  0  0  0  0  0  0
   39.8184  -19.5447   36.1704 O   0  0  0  0  0  0  0  0  0  0  0  0
   40.7074  -18.8251   37.0070 C   0  0  0  0  0  0  0  0  0  0  0  0
   42.1348  -18.9446   36.5173 C   0  0  0  0  0  0  0  0  0  0  0  0
   42.6259  -20.3454   36.4933 C   0  0  0  0  0  0  0  0  0  0  0  0
   43.2279  -20.7692   35.2577 N   0  0  0  0  0  0  0  0  0  0  0  0
   42.3048  -21.5584   34.4596 C   0  0  0  0  0  0  0  0  0  0  0  0
   42.9453  -22.8902   34.1872 C   0  0  0  0  0  0  0  0  0  0  0  0
   43.9897  -23.0005   35.2718 C   0  0  0  0  0  0  0  0  0  0  0  0
   44.4117  -21.5485   35.4112 C   0  0  0  0  0  0  0  0  0  0  0  0
 17 18  1  0  0  0
 18  1  1  0  0  0
  1  2  2  0  0  0
  2  3  1  0  0  0
  3  4  2  0  0  0
  4 19  1  0  0  0
 19 21  1  0  0  0
 21 22  1  0  0  0
 22 23  1  0  0  0
 23 24  1  0  0  0
 24 25  1  0  0  0
 25 26  1  0  0  0
 24 27  1  0  0  0
 27 28  1  0  0  0
 27 29  1  0  0  0
  4  5  1  0  0  0
  5  6  2  0  0  0
  6  7  1  0  0  0
  7  8  2  0  0  0
  8  9  1  0  0  0
  9 10  2  0  0  0
 10 30  1  0  0  0
 30 31  1  0  0  0
 31 32  1  0  0  0
 32 33  1  0  0  0
 33 34  1  0  0  0
 34 35  1  0  0  0
 35 36  1  0  0  0
 36 37  1  0  0  0
 37 38  1  0  0  0
  6 11  1  0  0  0
 11 12  1  0  0  0
 12 13  1  0  0  0
 13 14  1  0  0  0
 14 15  1  0  0  0
 15 16  1  0  0  0
 10  1  1  0  0  0
 38 34  1  0  0  0
 16 11  1  0  0  0
  8  3  1  0  0  0
 26 21  1  0  0  0
 19 20  1  0  0  0
M  END
> <minimizedAffinity>
-6.32623

> <CNNscore>
0.2522049546

> <CNNaffinity>
6.1357660294

> <CNN_VS>
1.5474705696

> <CNNaffinity_variance>
0.2136642039

$$$$
[H]c1c(-c2nc3c([H])c(OC([H])([H])C([H])([H])C([H])([H])N4C([H])([H])C([H])([H])C([H])([H])C4([H])[H])c(OC([H])([H])[H])c([H])c3c(N([H])C3([H])C([H])([H])C4(C([H])([H])C([H])([H])N(C([H])(C([H])([H])[H])C([H])([H])[H])C([H])([H])C4([H])[H])C3([H])[H])c2[H])oc(C([H])([H])[H])c1[H]


 41 46  0  0  0  0  0  0  0  0999 V2000
   36.0078  -13.7957   36.7914 C   0  0  0  0  0  0  0  0  0  0  0  0
   36.5180  -14.9947   36.3034 C   0  0  0  0  0  0  0  0  0  0  0  0
   35.6651  -16.0122   35.9703 C   0  0  0  0  0  0  0  0  0  0  0  0
   36.1224  -17.2143   35.4801 C   0  0  0  0  0  0  0  0  0  0  0  0
   35.1644  -18.1772   35.1706 C   0  0  0  0  0  0  0  0  0  0  0  0
   33.8054  -17.9416   35.3459 C   0  0  0  0  0  0  0  0  0  0  0  0
   33.4028  -16.7651   35.8227 N   0  0  0  0  0  0  0  0  0  0  0  0
   34.2903  -15.8070   36.1350 C   0  0  0  0  0  0  0  0  0  0  0  0
   33.7677  -14.6232   36.6180 C   0  0  0  0  0  0  0  0  0  0  0  0
   34.6516  -13.6204   36.9435 C   0  0  0  0  0  0  0  0  0  0  0  0
   32.8168  -18.9573   35.0150 C   0  0  0  0  0  0  0  0  0  0  0  0
   32.8850  -19.9433   34.0639 C   0  0  0  0  0  0  0  0  0  0  0  0
   31.7129  -20.6554   34.1253 C   0  0  0  0  0  0  0  0  0  0  0  0
   30.9663  -20.0827   35.1109 C   0  0  0  0  0  0  0  0  0  0  0  0
   29.6167  -20.5309   35.5247 C   0  0  0  0  0  0  0  0  0  0  0  0
   31.6443  -19.0808   35.6193 O   0  0  0  0  0  0  0  0  0  0  0  0
   38.1892  -12.9920   37.5024 C   0  0  0  0  0  0  0  0  0  0  0  0
   36.8518  -12.7612   37.1318 O   0  0  0  0  0  0  0  0  0  0  0  0
   37.4921  -17.4823   35.3056 N   0  0  0  0  0  0  0  0  0  0  0  0
   38.2220  -16.7556   35.4867 H   0  0  0  0  0  0  0  0  0  0  0  0
   37.9688  -18.7943   34.8660 C   0  0  0  0  0  0  0  0  0  0  0  0
   38.9670  -18.7688   33.7362 C   0  0  0  0  0  0  0  0  0  0  0  0
   39.9462  -19.6101   34.5588 C   0  0  0  0  0  0  0  0  0  0  0  0
   39.0788  -19.3221   35.7498 C   0  0  0  0  0  0  0  0  0  0  0  0
   41.3254  -19.0381   34.5616 C   0  0  0  0  0  0  0  0  0  0  0  0
   42.2620  -19.9684   35.3026 C   0  0  0  0  0  0  0  0  0  0  0  0
   42.2339  -21.2438   34.6517 N   0  0  0  0  0  0  0  0  0  0  0  0
   40.9456  -21.8993   34.7435 C   0  0  0  0  0  0  0  0  0  0  0  0
   39.9108  -21.0424   34.0766 C   0  0  0  0  0  0  0  0  0  0  0  0
   43.3217  -22.1088   35.0618 C   0  0  0  0  0  0  0  0  0  0  0  0
   44.5370  -21.3519   35.5311 C   0  0  0  0  0  0  0  0  0  0  0  0
   42.8654  -23.0035   36.1788 C   0  0  0  0  0  0  0  0  0  0  0  0
   34.1623  -12.4306   37.4253 O   0  0  0  0  0  0  0  0  0  0  0  0
   32.9909  -12.4134   38.1911 C   0  0  0  0  0  0  0  0  0  0  0  0
   31.9954  -11.4905   37.4883 C   0  0  0  0  0  0  0  0  0  0  0  0
   30.6120  -11.8290   37.9316 C   0  0  0  0  0  0  0  0  0  0  0  0
   29.6298  -10.8935   37.4680 N   0  0  0  0  0  0  0  0  0  0  0  0
   28.2765  -11.4250   37.6258 C   0  0  0  0  0  0  0  0  0  0  0  0
   27.7433  -10.9418   38.9269 C   0  0  0  0  0  0  0  0  0  0  0  0
   28.8339  -10.0716   39.4888 C   0  0  0  0  0  0  0  0  0  0  0  0
   29.6533   -9.7071   38.2788 C   0  0  0  0  0  0  0  0  0  0  0  0
 17 18  1  0  0  0
 18  1  1  0  0  0
  1  2  2  0  0  0
  2  3  1  0  0  0
  3  4  2  0  0  0
  4 19  1  0  0  0
 19 21  1  0  0  0
 21 22  1  0  0  0
 22 23  1  0  0  0
 23 24  1  0  0  0
 23 25  1  0  0  0
 25 26  1  0  0  0
 26 27  1  0  0  0
 27 28  1  0  0  0
 28 29  1  0  0  0
 27 30  1  0  0  0
 30 31  1  0  0  0
 30 32  1  0  0  0
  4  5  1  0  0  0
  5  6  2  0  0  0
  6  7  1  0  0  0
  7  8  2  0  0  0
  8  9  1  0  0  0
  9 10  2  0  0  0
 10 33  1  0  0  0
 33 34  1  0  0  0
 34 35  1  0  0  0
 35 36  1  0  0  0
 36 37  1  0  0  0
 37 38  1  0  0  0
 38 39  1  0  0  0
 39 40  1  0  0  0
 40 41  1  0  0  0
  6 11  1  0  0  0
 11 12  2  0  0  0
 12 13  1  0  0  0
 13 14  2  0  0  0
 14 15  1  0  0  0
 14 16  1  0  0  0
 10  1  1  0  0  0
 41 37  1  0  0  0
 16 11  1  0  0  0
  8  3  1  0  0  0
 24 21  1  0  0  0
 29 23  1  0  0  0
 19 20  1  0  0  0
M  END
> <minimizedAffinity>
-8.66358

> <CNNscore>
0.8336641192

> <CNNaffinity>
7.5614457130

> <CNN_VS>
6.3037061691

> <CNNaffinity_variance>
0.0245227069

$$$$
[H]c1c(-c2nc3c([H])c(OC([H])([H])C([H])([H])C([H])([H])N4C([H])([H])C([H])([H])C([H])([H])C4([H])[H])c(OC([H])([H])[H])c([H])c3c(N([H])C3([H])C([H])([H])C4(C([H])([H])C([H])([H])N(C([H])(C([H])([H])[H])C([H])([H])[H])C([H])([H])C4([H])[H])C3([H])[H])c2[H])oc(C([H])([H])[H])c1[H]


 41 46  0  0  0  0  0  0  0  0999 V2000
   36.3157  -13.8557   36.7771 C   0  0  0  0  0  0  0  0  0  0  0  0
   36.7040  -15.0743   36.2294 C   0  0  0  0  0  0  0  0  0  0  0  0
   35.7565  -16.0055   35.8996 C   0  0  0  0  0  0  0  0  0  0  0  0
   36.0919  -17.2229   35.3519 C   0  0  0  0  0  0  0  0  0  0  0  0
   35.0452  -18.0918   35.0519 C   0  0  0  0  0  0  0  0  0  0  0  0
   33.7186  -17.7516   35.2919 C   0  0  0  0  0  0  0  0  0  0  0  0
   33.4350  -16.5637   35.8232 N   0  0  0  0  0  0  0  0  0  0  0  0
   34.4113  -15.6938   36.1288 C   0  0  0  0  0  0  0  0  0  0  0  0
   34.0091  -14.4891   36.6716 C   0  0  0  0  0  0  0  0  0  0  0  0
   34.9859  -13.5748   36.9919 C   0  0  0  0  0  0  0  0  0  0  0  0
   32.6362  -18.6698   34.9702 C   0  0  0  0  0  0  0  0  0  0  0  0
   32.5304  -19.5335   33.9099 C   0  0  0  0  0  0  0  0  0  0  0  0
   31.3312  -20.1903   34.0328 C   0  0  0  0  0  0  0  0  0  0  0  0
   30.7425  -19.7077   35.1630 C   0  0  0  0  0  0  0  0  0  0  0  0
   29.4252  -20.1376   35.6859 C   0  0  0  0  0  0  0  0  0  0  0  0
   31.5371  -18.8099   35.6965 O   0  0  0  0  0  0  0  0  0  0  0  0
   38.4769  -13.2610   37.7181 C   0  0  0  0  0  0  0  0  0  0  0  0
   37.2561  -12.9070   37.1150 O   0  0  0  0  0  0  0  0  0  0  0  0
   37.4264  -17.5963   35.1111 N   0  0  0  0  0  0  0  0  0  0  0  0
   38.1907  -16.8867   35.0351 H   0  0  0  0  0  0  0  0  0  0  0  0
   37.8169  -18.9986   34.9592 C   0  0  0  0  0  0  0  0  0  0  0  0
   38.4636  -19.3454   33.6421 C   0  0  0  0  0  0  0  0  0  0  0  0
   39.6649  -19.9522   34.3715 C   0  0  0  0  0  0  0  0  0  0  0  0
   39.1477  -19.2935   35.6175 C   0  0  0  0  0  0  0  0  0  0  0  0
   40.9670  -19.4636   33.8283 C   0  0  0  0  0  0  0  0  0  0  0  0
   42.1086  -20.1773   34.5206 C   0  0  0  0  0  0  0  0  0  0  0  0
   41.9544  -21.5845   34.3032 N   0  0  0  0  0  0  0  0  0  0  0  0
   40.7690  -22.1292   34.9324 C   0  0  0  0  0  0  0  0  0  0  0  0
   39.5566  -21.4600   34.3564 C   0  0  0  0  0  0  0  0  0  0  0  0
   43.1474  -22.3384   34.6317 C   0  0  0  0  0  0  0  0  0  0  0  0
   43.9052  -21.7693   35.8031 C   0  0  0  0  0  0  0  0  0  0  0  0
   42.7778  -23.7576   34.9564 C   0  0  0  0  0  0  0  0  0  0  0  0
   34.6174  -12.3669   37.5322 O   0  0  0  0  0  0  0  0  0  0  0  0
   33.2662  -12.0054   37.5841 C   0  0  0  0  0  0  0  0  0  0  0  0
   33.2004  -10.4795   37.6484 C   0  0  0  0  0  0  0  0  0  0  0  0
   34.1050   -9.9033   36.6117 C   0  0  0  0  0  0  0  0  0  0  0  0
   34.3108   -8.4933   36.7681 N   0  0  0  0  0  0  0  0  0  0  0  0
   35.2251   -7.9758   35.7507 C   0  0  0  0  0  0  0  0  0  0  0  0
   34.4086   -7.4668   34.6171 C   0  0  0  0  0  0  0  0  0  0  0  0
   32.9825   -7.6736   35.0486 C   0  0  0  0  0  0  0  0  0  0  0  0
   33.0799   -7.7850   36.5474 C   0  0  0  0  0  0  0  0  0  0  0  0
 17 18  1  0  0  0
 18  1  1  0  0  0
  1  2  2  0  0  0
  2  3  1  0  0  0
  3  4  2  0  0  0
  4 19  1  0  0  0
 19 21  1  0  0  0
 21 22  1  0  0  0
 22 23  1  0  0  0
 23 24  1  0  0  0
 23 25  1  0  0  0
 25 26  1  0  0  0
 26 27  1  0  0  0
 27 28  1  0  0  0
 28 29  1  0  0  0
 27 30  1  0  0  0
 30 31  1  0  0  0
 30 32  1  0  0  0
  4  5  1  0  0  0
  5  6  2  0  0  0
  6  7  1  0  0  0
  7  8  2  0  0  0
  8  9  1  0  0  0
  9 10  2  0  0  0
 10 33  1  0  0  0
 33 34  1  0  0  0
 34 35  1  0  0  0
 35 36  1  0  0  0
 36 37  1  0  0  0
 37 38  1  0  0  0
 38 39  1  0  0  0
 39 40  1  0  0  0
 40 41  1  0  0  0
  6 11  1  0  0  0
 11 12  2  0  0  0
 12 13  1  0  0  0
 13 14  2  0  0  0
 14 15  1  0  0  0
 14 16  1  0  0  0
 10  1  1  0  0  0
 41 37  1  0  0  0
 16 11  1  0  0  0
  8  3  1  0  0  0
 24 21  1  0  0  0
 29 23  1  0  0  0
 19 20  1  0  0  0
M  END
> <minimizedAffinity>
-8.63856

> <CNNscore>
0.8028638363

> <CNNaffinity>
7.6965613365

> <CNN_VS>
6.1792907715

> <CNNaffinity_variance>
0.0821477696

$$$$
[H]c1c(-c2nc3c([H])c(OC([H])([H])C([H])([H])C([H])([H])N4C([H])([H])C([H])([H])C([H])([H])C4([H])[H])c(OC([H])([H])[H])c([H])c3c(N([H])C3([H])C([H])([H])C4(C([H])([H])C([H])([H])N(C([H])(C([H])([H])[H])C([H])([H])[H])C([H])([H])C4([H])[H])C3([H])[H])c2[H])oc(C([H])([H])[H])c1[H]


 41 46  0  0  0  0  0  0  0  0999 V2000
   36.1823  -13.9994   36.8204 C   0  0  0  0  0  0  0  0  0  0  0  0
   36.6070  -15.1511   36.1654 C   0  0  0  0  0  0  0  0  0  0  0  0
   35.6991  -16.1213   35.8363 C   0  0  0  0  0  0  0  0  0  0  0  0
   36.0711  -17.2754   35.1849 C   0  0  0  0  0  0  0  0  0  0  0  0
   35.0627  -18.1922   34.8964 C   0  0  0  0  0  0  0  0  0  0  0  0
   33.7378  -17.9589   35.2472 C   0  0  0  0  0  0  0  0  0  0  0  0
   33.4181  -16.8297   35.8768 N   0  0  0  0  0  0  0  0  0  0  0  0
   34.3566  -15.9170   36.1757 C   0  0  0  0  0  0  0  0  0  0  0  0
   33.9187  -14.7798   36.8257 C   0  0  0  0  0  0  0  0  0  0  0  0
   34.8561  -13.8237   37.1423 C   0  0  0  0  0  0  0  0  0  0  0  0
   32.6954  -18.9259   34.9360 C   0  0  0  0  0  0  0  0  0  0  0  0
   32.6609  -19.8557   33.9282 C   0  0  0  0  0  0  0  0  0  0  0  0
   31.4747  -20.5379   34.0388 C   0  0  0  0  0  0  0  0  0  0  0  0
   30.8225  -20.0040   35.1095 C   0  0  0  0  0  0  0  0  0  0  0  0
   29.4941  -20.4387   35.5995 C   0  0  0  0  0  0  0  0  0  0  0  0
   31.5682  -19.0527   35.6204 O   0  0  0  0  0  0  0  0  0  0  0  0
   38.3472  -13.3203   37.6935 C   0  0  0  0  0  0  0  0  0  0  0  0
   37.0825  -13.0128   37.1593 O   0  0  0  0  0  0  0  0  0  0  0  0
   37.4061  -17.5411   34.8304 N   0  0  0  0  0  0  0  0  0  0  0  0
   37.8799  -17.0304   34.0506 H   0  0  0  0  0  0  0  0  0  0  0  0
   38.2043  -18.5432   35.5379 C   0  0  0  0  0  0  0  0  0  0  0  0
   37.8764  -18.7092   37.0001 C   0  0  0  0  0  0  0  0  0  0  0  0
   37.6768  -20.2140   36.8028 C   0  0  0  0  0  0  0  0  0  0  0  0
   37.6754  -19.9457   35.3257 C   0  0  0  0  0  0  0  0  0  0  0  0
   36.4043  -20.7042   37.4111 C   0  0  0  0  0  0  0  0  0  0  0  0
   36.3188  -22.2091   37.2717 C   0  0  0  0  0  0  0  0  0  0  0  0
   37.4571  -22.7846   37.9231 N   0  0  0  0  0  0  0  0  0  0  0  0
   38.7101  -22.4449   37.2809 C   0  0  0  0  0  0  0  0  0  0  0  0
   38.8904  -20.9563   37.3141 C   0  0  0  0  0  0  0  0  0  0  0  0
   37.3194  -24.2105   38.1410 C   0  0  0  0  0  0  0  0  0  0  0  0
   36.0888  -24.5739   38.9309 C   0  0  0  0  0  0  0  0  0  0  0  0
   37.2565  -24.9222   36.8197 C   0  0  0  0  0  0  0  0  0  0  0  0
   34.4512  -12.6808   37.7879 O   0  0  0  0  0  0  0  0  0  0  0  0
   33.3765  -11.9367   37.2877 C   0  0  0  0  0  0  0  0  0  0  0  0
   33.6242  -10.4718   37.6477 C   0  0  0  0  0  0  0  0  0  0  0  0
   34.3132   -9.7948   36.5111 C   0  0  0  0  0  0  0  0  0  0  0  0
   34.4060   -8.3741   36.6775 N   0  0  0  0  0  0  0  0  0  0  0  0
   35.2568   -7.7752   35.6497 C   0  0  0  0  0  0  0  0  0  0  0  0
   34.3814   -7.3253   34.5352 C   0  0  0  0  0  0  0  0  0  0  0  0
   32.9849   -7.6516   34.9889 C   0  0  0  0  0  0  0  0  0  0  0  0
   33.1176   -7.7670   36.4847 C   0  0  0  0  0  0  0  0  0  0  0  0
 17 18  1  0  0  0
 18  1  1  0  0  0
  1  2  2  0  0  0
  2  3  1  0  0  0
  3  4  2  0  0  0
  4 19  1  0  0  0
 19 21  1  0  0  0
 21 22  1  0  0  0
 22 23  1  0  0  0
 23 24  1  0  0  0
 23 25  1  0  0  0
 25 26  1  0  0  0
 26 27  1  0  0  0
 27 28  1  0  0  0
 28 29  1  0  0  0
 27 30  1  0  0  0
 30 31  1  0  0  0
 30 32  1  0  0  0
  4  5  1  0  0  0
  5  6  2  0  0  0
  6  7  1  0  0  0
  7  8  2  0  0  0
  8  9  1  0  0  0
  9 10  2  0  0  0
 10 33  1  0  0  0
 33 34  1  0  0  0
 34 35  1  0  0  0
 35 36  1  0  0  0
 36 37  1  0  0  0
 37 38  1  0  0  0
 38 39  1  0  0  0
 39 40  1  0  0  0
 40 41  1  0  0  0
  6 11  1  0  0  0
 11 12  2  0  0  0
 12 13  1  0  0  0
 13 14  2  0  0  0
 14 15  1  0  0  0
 14 16  1  0  0  0
 10  1  1  0  0  0
 41 37  1  0  0  0
 16 11  1  0  0  0
  8  3  1  0  0  0
 24 21  1  0  0  0
 29 23  1  0  0  0
 19 20  1  0  0  0
M  END
> <minimizedAffinity>
-7.85390

> <CNNscore>
0.7347551584

> <CNNaffinity>
7.6894254684

> <CNN_VS>
5.6498451233

> <CNNaffinity_variance>
0.0348462202

$$$$
[H]c1c(-c2nc3c([H])c(OC([H])([H])C([H])([H])C([H])([H])N4C([H])([H])C([H])([H])C([H])([H])C4([H])[H])c(OC([H])([H])[H])c([H])c3c(N([H])C3([H])C([H])([H])C4(C([H])([H])C([H])([H])N(C([H])(C([H])([H])[H])C([H])([H])[H])C([H])([H])C4([H])[H])C3([H])[H])c2[H])oc(C([H])([H])[H])c1[H]


 41 46  0  0  0  0  0  0  0  0999 V2000
   36.2671  -14.0780   36.6734 C   0  0  0  0  0  0  0  0  0  0  0  0
   36.7160  -15.2688   36.1111 C   0  0  0  0  0  0  0  0  0  0  0  0
   35.8214  -16.2612   35.8136 C   0  0  0  0  0  0  0  0  0  0  0  0
   36.2174  -17.4543   35.2531 C   0  0  0  0  0  0  0  0  0  0  0  0
   35.2208  -18.3911   34.9889 C   0  0  0  0  0  0  0  0  0  0  0  0
   33.8838  -18.1393   35.2755 C   0  0  0  0  0  0  0  0  0  0  0  0
   33.5408  -16.9722   35.8178 N   0  0  0  0  0  0  0  0  0  0  0  0
   34.4673  -16.0391   36.0900 C   0  0  0  0  0  0  0  0  0  0  0  0
   34.0053  -14.8631   36.6479 C   0  0  0  0  0  0  0  0  0  0  0  0
   34.9300  -13.8856   36.9349 C   0  0  0  0  0  0  0  0  0  0  0  0
   32.8540  -19.1277   34.9908 C   0  0  0  0  0  0  0  0  0  0  0  0
   32.8790  -20.1555   34.0829 C   0  0  0  0  0  0  0  0  0  0  0  0
   31.6796  -20.8167   34.1775 C   0  0  0  0  0  0  0  0  0  0  0  0
   30.9603  -20.1727   35.1391 C   0  0  0  0  0  0  0  0  0  0  0  0
   29.5955  -20.5481   35.5747 C   0  0  0  0  0  0  0  0  0  0  0  0
   31.6799  -19.1780   35.6024 O   0  0  0  0  0  0  0  0  0  0  0  0
   38.3434  -13.3213   37.6867 C   0  0  0  0  0  0  0  0  0  0  0  0
   37.1538  -13.0686   36.9793 O   0  0  0  0  0  0  0  0  0  0  0  0
   37.5646  -17.7386   34.9653 N   0  0  0  0  0  0  0  0  0  0  0  0
   38.1430  -17.1088   34.3634 H   0  0  0  0  0  0  0  0  0  0  0  0
   38.2296  -18.9288   35.4975 C   0  0  0  0  0  0  0  0  0  0  0  0
   39.5465  -19.2721   34.8485 C   0  0  0  0  0  0  0  0  0  0  0  0
   40.2353  -19.2919   36.2154 C   0  0  0  0  0  0  0  0  0  0  0  0
   39.0042  -18.6299   36.7633 C   0  0  0  0  0  0  0  0  0  0  0  0
   41.5012  -18.5003   36.2266 C   0  0  0  0  0  0  0  0  0  0  0  0
   42.1820  -18.6457   37.5708 C   0  0  0  0  0  0  0  0  0  0  0  0
   42.4414  -20.0366   37.7932 N   0  0  0  0  0  0  0  0  0  0  0  0
   41.2335  -20.8247   37.9262 C   0  0  0  0  0  0  0  0  0  0  0  0
   40.4394  -20.7229   36.6579 C   0  0  0  0  0  0  0  0  0  0  0  0
   43.3721  -20.2686   38.8793 C   0  0  0  0  0  0  0  0  0  0  0  0
   44.7157  -20.7664   38.4132 C   0  0  0  0  0  0  0  0  0  0  0  0
   43.5837  -18.9952   39.6473 C   0  0  0  0  0  0  0  0  0  0  0  0
   34.5013  -12.7041   37.4892 O   0  0  0  0  0  0  0  0  0  0  0  0
   33.3716  -12.0577   36.9743 C   0  0  0  0  0  0  0  0  0  0  0  0
   32.3284  -11.9961   38.0901 C   0  0  0  0  0  0  0  0  0  0  0  0
   31.1509  -11.2099   37.6208 C   0  0  0  0  0  0  0  0  0  0  0  0
   29.9198  -11.9392   37.7054 N   0  0  0  0  0  0  0  0  0  0  0  0
   29.7535  -12.5456   39.0258 C   0  0  0  0  0  0  0  0  0  0  0  0
   28.9548  -11.6110   39.8620 C   0  0  0  0  0  0  0  0  0  0  0  0
   28.6309  -10.4607   38.9485 C   0  0  0  0  0  0  0  0  0  0  0  0
   28.8031  -11.0446   37.5709 C   0  0  0  0  0  0  0  0  0  0  0  0
 17 18  1  0  0  0
 18  1  1  0  0  0
  1  2  2  0  0  0
  2  3  1  0  0  0
  3  4  2  0  0  0
  4 19  1  0  0  0
 19 21  1  0  0  0
 21 22  1  0  0  0
 22 23  1  0  0  0
 23 24  1  0  0  0
 23 25  1  0  0  0
 25 26  1  0  0  0
 26 27  1  0  0  0
 27 28  1  0  0  0
 28 29  1  0  0  0
 27 30  1  0  0  0
 30 31  1  0  0  0
 30 32  1  0  0  0
  4  5  1  0  0  0
  5  6  2  0  0  0
  6  7  1  0  0  0
  7  8  2  0  0  0
  8  9  1  0  0  0
  9 10  2  0  0  0
 10 33  1  0  0  0
 33 34  1  0  0  0
 34 35  1  0  0  0
 35 36  1  0  0  0
 36 37  1  0  0  0
 37 38  1  0  0  0
 38 39  1  0  0  0
 39 40  1  0  0  0
 40 41  1  0  0  0
  6 11  1  0  0  0
 11 12  2  0  0  0
 12 13  1  0  0  0
 13 14  2  0  0  0
 14 15  1  0  0  0
 14 16  1  0  0  0
 10  1  1  0  0  0
 41 37  1  0  0  0
 16 11  1  0  0  0
  8  3  1  0  0  0
 24 21  1  0  0  0
 29 23  1  0  0  0
 19 20  1  0  0  0
M  END
> <minimizedAffinity>
-8.63592

> <CNNscore>
0.6922892928

> <CNNaffinity>
7.5330419540

> <CNN_VS>
5.2150444984

> <CNNaffinity_variance>
0.0404129364

$$$$
[H]c1c(-c2nc3c([H])c(OC([H])([H])C([H])([H])C([H])([H])N4C([H])([H])C([H])([H])C([H])([H])C4([H])[H])c(OC([H])([H])[H])c([H])c3c(N([H])C3([H])C([H])([H])C4(C([H])([H])C([H])([H])N(C([H])(C([H])([H])[H])C([H])([H])[H])C([H])([H])C4([H])[H])C3([H])[H])c2[H])oc(C([H])([H])[H])c1[H]


 41 46  0  0  0  0  0  0  0  0999 V2000
   36.2037  -14.0253   36.5001 C   0  0  0  0  0  0  0  0  0  0  0  0
   36.6496  -15.3178   36.2422 C   0  0  0  0  0  0  0  0  0  0  0  0
   35.7449  -16.3089   35.9721 C   0  0  0  0  0  0  0  0  0  0  0  0
   36.1383  -17.6011   35.7071 C   0  0  0  0  0  0  0  0  0  0  0  0
   35.1320  -18.5271   35.4418 C   0  0  0  0  0  0  0  0  0  0  0  0
   33.7884  -18.1697   35.4425 C   0  0  0  0  0  0  0  0  0  0  0  0
   33.4483  -16.9087   35.7036 N   0  0  0  0  0  0  0  0  0  0  0  0
   34.3840  -15.9818   35.9651 C   0  0  0  0  0  0  0  0  0  0  0  0
   33.9249  -14.7041   36.2190 C   0  0  0  0  0  0  0  0  0  0  0  0
   34.8597  -13.7308   36.4868 C   0  0  0  0  0  0  0  0  0  0  0  0
   32.7490  -19.1488   35.1605 C   0  0  0  0  0  0  0  0  0  0  0  0
   32.7998  -20.2387   34.3294 C   0  0  0  0  0  0  0  0  0  0  0  0
   31.5774  -20.8603   34.3913 C   0  0  0  0  0  0  0  0  0  0  0  0
   30.8189  -20.1313   35.2575 C   0  0  0  0  0  0  0  0  0  0  0  0
   29.4186  -20.4395   35.6285 C   0  0  0  0  0  0  0  0  0  0  0  0
   31.5378  -19.1252   35.6966 O   0  0  0  0  0  0  0  0  0  0  0  0
   38.2804  -13.2546   37.5018 C   0  0  0  0  0  0  0  0  0  0  0  0
   37.1004  -13.0156   36.7740 O   0  0  0  0  0  0  0  0  0  0  0  0
   37.4897  -17.9911   35.7128 N   0  0  0  0  0  0  0  0  0  0  0  0
   38.2602  -17.3068   35.5353 H   0  0  0  0  0  0  0  0  0  0  0  0
   37.8893  -19.3749   35.9728 C   0  0  0  0  0  0  0  0  0  0  0  0
   39.3089  -19.7144   35.5952 C   0  0  0  0  0  0  0  0  0  0  0  0
   39.5757  -20.2463   37.0056 C   0  0  0  0  0  0  0  0  0  0  0  0
   38.2894  -19.5901   37.4168 C   0  0  0  0  0  0  0  0  0  0  0  0
   40.8383  -19.7038   37.5894 C   0  0  0  0  0  0  0  0  0  0  0  0
   41.0950  -20.3460   38.9360 C   0  0  0  0  0  0  0  0  0  0  0  0
   41.1811  -21.7632   38.7471 N   0  0  0  0  0  0  0  0  0  0  0  0
   39.9330  -22.3541   38.3103 C   0  0  0  0  0  0  0  0  0  0  0  0
   39.5432  -21.7575   36.9906 C   0  0  0  0  0  0  0  0  0  0  0  0
   41.7442  -22.4501   39.8919 C   0  0  0  0  0  0  0  0  0  0  0  0
   42.5656  -21.5505   40.7786 C   0  0  0  0  0  0  0  0  0  0  0  0
   40.6412  -23.0455   40.7196 C   0  0  0  0  0  0  0  0  0  0  0  0
   34.4344  -12.4499   36.7421 O   0  0  0  0  0  0  0  0  0  0  0  0
   33.4724  -12.2149   37.7313 C   0  0  0  0  0  0  0  0  0  0  0  0
   33.1875  -10.7132   37.7484 C   0  0  0  0  0  0  0  0  0  0  0  0
   34.0522  -10.0361   36.7389 C   0  0  0  0  0  0  0  0  0  0  0  0
   34.1380   -8.6187   36.9343 N   0  0  0  0  0  0  0  0  0  0  0  0
   34.9149   -7.9837   35.8703 C   0  0  0  0  0  0  0  0  0  0  0  0
   33.9655   -7.5193   34.8245 C   0  0  0  0  0  0  0  0  0  0  0  0
   32.6045   -7.8755   35.3567 C   0  0  0  0  0  0  0  0  0  0  0  0
   32.8328   -8.0249   36.8380 C   0  0  0  0  0  0  0  0  0  0  0  0
 17 18  1  0  0  0
 18  1  1  0  0  0
  1  2  2  0  0  0
  2  3  1  0  0  0
  3  4  2  0  0  0
  4 19  1  0  0  0
 19 21  1  0  0  0
 21 22  1  0  0  0
 22 23  1  0  0  0
 23 24  1  0  0  0
 23 25  1  0  0  0
 25 26  1  0  0  0
 26 27  1  0  0  0
 27 28  1  0  0  0
 28 29  1  0  0  0
 27 30  1  0  0  0
 30 31  1  0  0  0
 30 32  1  0  0  0
  4  5  1  0  0  0
  5  6  2  0  0  0
  6  7  1  0  0  0
  7  8  2  0  0  0
  8  9  1  0  0  0
  9 10  2  0  0  0
 10 33  1  0  0  0
 33 34  1  0  0  0
 34 35  1  0  0  0
 35 36  1  0  0  0
 36 37  1  0  0  0
 37 38  1  0  0  0
 38 39  1  0  0  0
 39 40  1  0  0  0
 40 41  1  0  0  0
  6 11  1  0  0  0
 11 12  2  0  0  0
 12 13  1  0  0  0
 13 14  2  0  0  0
 14 15  1  0  0  0
 14 16  1  0  0  0
 10  1  1  0  0  0
 41 37  1  0  0  0
 16 11  1  0  0  0
  8  3  1  0  0  0
 24 21  1  0  0  0
 29 23  1  0  0  0
 19 20  1  0  0  0
M  END
> <minimizedAffinity>
-8.00762

> <CNNscore>
0.6318804622

> <CNNaffinity>
7.4082975388

> <CNN_VS>
4.6811585426

> <CNNaffinity_variance>
0.0337092094

$$$$
[H]c1c(-c2nc3c([H])c(OC([H])([H])C([H])([H])C([H])([H])N4C([H])([H])C([H])([H])C([H])([H])C4([H])[H])c(OC([H])([H])[H])c([H])c3c(N([H])C3([H])C([H])([H])C4(C([H])([H])C([H])([H])N(C([H])(C([H])([H])[H])C([H])([H])[H])C([H])([H])C4([H])[H])C3([H])[H])c2[H])oc(C([H])([H])[H])c1[H]


 41 46  0  0  0  0  0  0  0  0999 V2000
   36.0872  -14.0800   36.5690 C   0  0  0  0  0  0  0  0  0  0  0  0
   36.5438  -15.2630   35.9963 C   0  0  0  0  0  0  0  0  0  0  0  0
   35.6613  -16.2742   35.7272 C   0  0  0  0  0  0  0  0  0  0  0  0
   36.0651  -17.4605   35.1579 C   0  0  0  0  0  0  0  0  0  0  0  0
   35.0806  -18.4181   34.9251 C   0  0  0  0  0  0  0  0  0  0  0  0
   33.7477  -18.1929   35.2502 C   0  0  0  0  0  0  0  0  0  0  0  0
   33.3969  -17.0315   35.7998 N   0  0  0  0  0  0  0  0  0  0  0  0
   34.3116  -16.0790   36.0427 C   0  0  0  0  0  0  0  0  0  0  0  0
   33.8422  -14.9111   36.6114 C   0  0  0  0  0  0  0  0  0  0  0  0
   34.7547  -13.9142   36.8690 C   0  0  0  0  0  0  0  0  0  0  0  0
   32.7305  -19.2028   34.9978 C   0  0  0  0  0  0  0  0  0  0  0  0
   32.7850  -20.2836   34.1550 C   0  0  0  0  0  0  0  0  0  0  0  0
   31.5863  -20.9450   34.2566 C   0  0  0  0  0  0  0  0  0  0  0  0
   30.8379  -20.2483   35.1574 C   0  0  0  0  0  0  0  0  0  0  0  0
   29.4632  -20.6048   35.5775 C   0  0  0  0  0  0  0  0  0  0  0  0
   31.5401  -19.2230   35.5790 O   0  0  0  0  0  0  0  0  0  0  0  0
   38.1574  -13.2718   37.5546 C   0  0  0  0  0  0  0  0  0  0  0  0
   36.9616  -13.0519   36.8466 O   0  0  0  0  0  0  0  0  0  0  0  0
   37.4088  -17.7181   34.8315 N   0  0  0  0  0  0  0  0  0  0  0  0
   37.8678  -17.2756   34.0026 H   0  0  0  0  0  0  0  0  0  0  0  0
   38.2373  -18.6155   35.6378 C   0  0  0  0  0  0  0  0  0  0  0  0
   37.8597  -18.7011   37.0950 C   0  0  0  0  0  0  0  0  0  0  0  0
   37.7618  -20.2257   36.9983 C   0  0  0  0  0  0  0  0  0  0  0  0
   37.8053  -20.0604   35.5068 C   0  0  0  0  0  0  0  0  0  0  0  0
   36.4978  -20.7539   37.5923 C   0  0  0  0  0  0  0  0  0  0  0  0
   36.5112  -22.2672   37.5577 C   0  0  0  0  0  0  0  0  0  0  0  0
   37.6549  -22.7218   38.2903 N   0  0  0  0  0  0  0  0  0  0  0  0
   38.9101  -22.3470   37.6725 C   0  0  0  0  0  0  0  0  0  0  0  0
   38.9966  -20.8511   37.6060 C   0  0  0  0  0  0  0  0  0  0  0  0
   37.5965  -24.1352   38.6042 C   0  0  0  0  0  0  0  0  0  0  0  0
   38.1921  -24.4699   39.9471 C   0  0  0  0  0  0  0  0  0  0  0  0
   36.1678  -24.5986   38.5954 C   0  0  0  0  0  0  0  0  0  0  0  0
   34.3182  -12.7402   37.4331 O   0  0  0  0  0  0  0  0  0  0  0  0
   33.1711  -12.7320   38.2350 C   0  0  0  0  0  0  0  0  0  0  0  0
   32.2649  -11.6092   37.7299 C   0  0  0  0  0  0  0  0  0  0  0  0
   30.8484  -12.0769   37.7407 C   0  0  0  0  0  0  0  0  0  0  0  0
   30.0082  -11.3006   38.6044 N   0  0  0  0  0  0  0  0  0  0  0  0
   28.8220  -10.8197   37.8968 C   0  0  0  0  0  0  0  0  0  0  0  0
   27.7223  -11.7923   38.1322 C   0  0  0  0  0  0  0  0  0  0  0  0
   28.3170  -12.8301   39.0442 C   0  0  0  0  0  0  0  0  0  0  0  0
   29.4929  -12.1225   39.6648 C   0  0  0  0  0  0  0  0  0  0  0  0
 17 18  1  0  0  0
 18  1  1  0  0  0
  1  2  2  0  0  0
  2  3  1  0  0  0
  3  4  2  0  0  0
  4 19  1  0  0  0
 19 21  1  0  0  0
 21 22  1  0  0  0
 22 23  1  0  0  0
 23 24  1  0  0  0
 23 25  1  0  0  0
 25 26  1  0  0  0
 26 27  1  0  0  0
 27 28  1  0  0  0
 28 29  1  0  0  0
 27 30  1  0  0  0
 30 31  1  0  0  0
 30 32  1  0  0  0
  4  5  1  0  0  0
  5  6  2  0  0  0
  6  7  1  0  0  0
  7  8  2  0  0  0
  8  9  1  0  0  0
  9 10  2  0  0  0
 10 33  1  0  0  0
 33 34  1  0  0  0
 34 35  1  0  0  0
 35 36  1  0  0  0
 36 37  1  0  0  0
 37 38  1  0  0  0
 38 39  1  0  0  0
 39 40  1  0  0  0
 40 41  1  0  0  0
  6 11  1  0  0  0
 11 12  2  0  0  0
 12 13  1  0  0  0
 13 14  2  0  0  0
 14 15  1  0  0  0
 14 16  1  0  0  0
 10  1  1  0  0  0
 41 37  1  0  0  0
 16 11  1  0  0  0
  8  3  1  0  0  0
 24 21  1  0  0  0
 29 23  1  0  0  0
 19 20  1  0  0  0
M  END
> <minimizedAffinity>
-7.91130

> <CNNscore>
0.6114196777

> <CNNaffinity>
7.3584899902

> <CNN_VS>
4.4991254807

> <CNNaffinity_variance>
0.1239180788

$$$$
[H]c1c(-c2nc3c([H])c(OC([H])([H])C([H])([H])C([H])([H])N4C([H])([H])C([H])([H])C([H])([H])C4([H])[H])c(OC([H])([H])[H])c([H])c3c(N([H])C3([H])C([H])([H])C4(C([H])([H])C([H])([H])N(C([H])(C([H])([H])[H])C([H])([H])[H])C([H])([H])C4([H])[H])C3([H])[H])c2[H])oc(C([H])([H])[H])c1[H]


 41 46  0  0  0  0  0  0  0  0999 V2000
   35.9902  -14.0164   36.5591 C   0  0  0  0  0  0  0  0  0  0  0  0
   36.5295  -15.2870   36.3838 C   0  0  0  0  0  0  0  0  0  0  0  0
   35.7084  -16.3391   36.0793 C   0  0  0  0  0  0  0  0  0  0  0  0
   36.1960  -17.6127   35.8929 C   0  0  0  0  0  0  0  0  0  0  0  0
   35.2697  -18.6059   35.5828 C   0  0  0  0  0  0  0  0  0  0  0  0
   33.9120  -18.3307   35.4650 C   0  0  0  0  0  0  0  0  0  0  0  0
   33.4795  -17.0851   35.6529 N   0  0  0  0  0  0  0  0  0  0  0  0
   34.3358  -16.0954   35.9536 C   0  0  0  0  0  0  0  0  0  0  0  0
   33.7846  -14.8406   36.1244 C   0  0  0  0  0  0  0  0  0  0  0  0
   34.6368  -13.8045   36.4296 C   0  0  0  0  0  0  0  0  0  0  0  0
   32.9572  -19.3793   35.1377 C   0  0  0  0  0  0  0  0  0  0  0  0
   33.0423  -20.3446   34.1669 C   0  0  0  0  0  0  0  0  0  0  0  0
   31.9014  -21.1044   34.2416 C   0  0  0  0  0  0  0  0  0  0  0  0
   31.1558  -20.5800   35.2545 C   0  0  0  0  0  0  0  0  0  0  0  0
   29.8353  -21.0896   35.6905 C   0  0  0  0  0  0  0  0  0  0  0  0
   31.8051  -19.5608   35.7661 O   0  0  0  0  0  0  0  0  0  0  0  0
   38.0639  -13.1247   37.4616 C   0  0  0  0  0  0  0  0  0  0  0  0
   36.8019  -12.9461   36.8661 O   0  0  0  0  0  0  0  0  0  0  0  0
   37.5629  -17.9198   36.0189 N   0  0  0  0  0  0  0  0  0  0  0  0
   38.2839  -17.1741   36.1515 H   0  0  0  0  0  0  0  0  0  0  0  0
   38.0478  -19.3000   35.9760 C   0  0  0  0  0  0  0  0  0  0  0  0
   39.5229  -19.4536   35.7049 C   0  0  0  0  0  0  0  0  0  0  0  0
   39.6826  -20.3126   36.9619 C   0  0  0  0  0  0  0  0  0  0  0  0
   38.3094  -19.8546   37.3601 C   0  0  0  0  0  0  0  0  0  0  0  0
   40.8262  -19.8689   37.8132 C   0  0  0  0  0  0  0  0  0  0  0  0
   40.9920  -20.8186   38.9803 C   0  0  0  0  0  0  0  0  0  0  0  0
   41.2166  -22.1336   38.4591 N   0  0  0  0  0  0  0  0  0  0  0  0
   40.0760  -22.6609   37.7389 C   0  0  0  0  0  0  0  0  0  0  0  0
   39.7793  -21.7693   36.5698 C   0  0  0  0  0  0  0  0  0  0  0  0
   41.7111  -23.0582   39.4592 C   0  0  0  0  0  0  0  0  0  0  0  0
   43.2154  -23.1205   39.5175 C   0  0  0  0  0  0  0  0  0  0  0  0
   41.2048  -22.6577   40.8154 C   0  0  0  0  0  0  0  0  0  0  0  0
   34.1188  -12.5443   36.6043 O   0  0  0  0  0  0  0  0  0  0  0  0
   33.7186  -12.1214   37.8771 C   0  0  0  0  0  0  0  0  0  0  0  0
   32.2966  -12.6336   38.1060 C   0  0  0  0  0  0  0  0  0  0  0  0
   31.3246  -11.5476   37.7885 C   0  0  0  0  0  0  0  0  0  0  0  0
   29.9691  -12.0091   37.7251 N   0  0  0  0  0  0  0  0  0  0  0  0
   29.5443  -12.5811   39.0023 C   0  0  0  0  0  0  0  0  0  0  0  0
   28.8685  -11.5103   39.7817 C   0  0  0  0  0  0  0  0  0  0  0  0
   28.8838  -10.3093   38.8764 C   0  0  0  0  0  0  0  0  0  0  0  0
   29.0782  -10.9028   37.5058 C   0  0  0  0  0  0  0  0  0  0  0  0
 17 18  1  0  0  0
 18  1  1  0  0  0
  1  2  2  0  0  0
  2  3  1  0  0  0
  3  4  2  0  0  0
  4 19  1  0  0  0
 19 21  1  0  0  0
 21 22  1  0  0  0
 22 23  1  0  0  0
 23 24  1  0  0  0
 23 25  1  0  0  0
 25 26  1  0  0  0
 26 27  1  0  0  0
 27 28  1  0  0  0
 28 29  1  0  0  0
 27 30  1  0  0  0
 30 31  1  0  0  0
 30 32  1  0  0  0
  4  5  1  0  0  0
  5  6  2  0  0  0
  6  7  1  0  0  0
  7  8  2  0  0  0
  8  9  1  0  0  0
  9 10  2  0  0  0
 10 33  1  0  0  0
 33 34  1  0  0  0
 34 35  1  0  0  0
 35 36  1  0  0  0
 36 37  1  0  0  0
 37 38  1  0  0  0
 38 39  1  0  0  0
 39 40  1  0  0  0
 40 41  1  0  0  0
  6 11  1  0  0  0
 11 12  2  0  0  0
 12 13  1  0  0  0
 13 14  2  0  0  0
 14 15  1  0  0  0
 14 16  1  0  0  0
 10  1  1  0  0  0
 41 37  1  0  0  0
 16 11  1  0  0  0
  8  3  1  0  0  0
 24 21  1  0  0  0
 29 23  1  0  0  0
 19 20  1  0  0  0
M  END
> <minimizedAffinity>
-8.27194

> <CNNscore>
0.5913079381

> <CNNaffinity>
7.2020673752

> <CNN_VS>
4.2586398125

> <CNNaffinity_variance>
0.0740707293

$$$$
[H]c1c(-c2nc3c([H])c(OC([H])([H])C([H])([H])C([H])([H])N4C([H])([H])C([H])([H])C([H])([H])C4([H])[H])c(OC([H])([H])[H])c([H])c3c(N([H])C3([H])C([H])([H])C4(C([H])([H])C([H])([H])N(C([H])(C([H])([H])[H])C([H])([H])[H])C([H])([H])C4([H])[H])C3([H])[H])c2[H])oc(C([H])([H])[H])c1[H]


 41 46  0  0  0  0  0  0  0  0999 V2000
   32.7579  -20.6057   34.4402 C   0  0  0  0  0  0  0  0  0  0  0  0
   34.0688  -20.2178   34.1811 C   0  0  0  0  0  0  0  0  0  0  0  0
   34.5290  -19.0171   34.6505 C   0  0  0  0  0  0  0  0  0  0  0  0
   35.8184  -18.5925   34.4230 C   0  0  0  0  0  0  0  0  0  0  0  0
   36.1795  -17.3550   34.9510 C   0  0  0  0  0  0  0  0  0  0  0  0
   35.2835  -16.5781   35.6766 C   0  0  0  0  0  0  0  0  0  0  0  0
   34.0444  -17.0242   35.8752 N   0  0  0  0  0  0  0  0  0  0  0  0
   33.6515  -18.2110   35.3850 C   0  0  0  0  0  0  0  0  0  0  0  0
   32.3477  -18.5812   35.6509 C   0  0  0  0  0  0  0  0  0  0  0  0
   31.9161  -19.7939   35.1651 C   0  0  0  0  0  0  0  0  0  0  0  0
   35.6774  -15.2884   36.2241 C   0  0  0  0  0  0  0  0  0  0  0  0
   34.9229  -14.1526   36.3721 C   0  0  0  0  0  0  0  0  0  0  0  0
   35.7287  -13.1941   36.9347 C   0  0  0  0  0  0  0  0  0  0  0  0
   36.9490  -13.7738   37.1126 C   0  0  0  0  0  0  0  0  0  0  0  0
   38.1332  -13.1015   37.6951 C   0  0  0  0  0  0  0  0  0  0  0  0
   36.8891  -15.0124   36.6833 O   0  0  0  0  0  0  0  0  0  0  0  0
   32.0642  -22.9016   34.8375 C   0  0  0  0  0  0  0  0  0  0  0  0
   32.2781  -21.8107   33.9751 O   0  0  0  0  0  0  0  0  0  0  0  0
   36.7401  -19.3535   33.6816 N   0  0  0  0  0  0  0  0  0  0  0  0
   36.4286  -20.0616   32.9780 H   0  0  0  0  0  0  0  0  0  0  0  0
   38.1846  -19.1907   33.8520 C   0  0  0  0  0  0  0  0  0  0  0  0
   38.6499  -19.0456   35.2788 C   0  0  0  0  0  0  0  0  0  0  0  0
   39.6390  -20.1990   35.0923 C   0  0  0  0  0  0  0  0  0  0  0  0
   38.9150  -20.5162   33.8159 C   0  0  0  0  0  0  0  0  0  0  0  0
   39.5568  -21.2033   36.1940 C   0  0  0  0  0  0  0  0  0  0  0  0
   40.6266  -22.2575   36.0043 C   0  0  0  0  0  0  0  0  0  0  0  0
   41.9015  -21.6051   35.9949 N   0  0  0  0  0  0  0  0  0  0  0  0
   42.0778  -20.7204   34.8618 C   0  0  0  0  0  0  0  0  0  0  0  0
   41.0338  -19.6447   34.9123 C   0  0  0  0  0  0  0  0  0  0  0  0
   43.0073  -22.5287   36.1491 C   0  0  0  0  0  0  0  0  0  0  0  0
   44.3374  -21.9304   35.7710 C   0  0  0  0  0  0  0  0  0  0  0  0
   43.0884  -22.9899   37.5763 C   0  0  0  0  0  0  0  0  0  0  0  0
   30.6248  -20.1907   35.4142 O   0  0  0  0  0  0  0  0  0  0  0  0
   29.6018  -19.2386   35.4920 C   0  0  0  0  0  0  0  0  0  0  0  0
   28.4907  -19.8273   36.3612 C   0  0  0  0  0  0  0  0  0  0  0  0
   28.8691  -21.2096   36.7751 C   0  0  0  0  0  0  0  0  0  0  0  0
   27.7371  -22.0297   37.0922 N   0  0  0  0  0  0  0  0  0  0  0  0
   28.1512  -23.3809   37.4685 C   0  0  0  0  0  0  0  0  0  0  0  0
   28.2709  -23.4277   38.9498 C   0  0  0  0  0  0  0  0  0  0  0  0
   27.8630  -22.0553   39.4109 C   0  0  0  0  0  0  0  0  0  0  0  0
   27.0631  -21.5173   38.2536 C   0  0  0  0  0  0  0  0  0  0  0  0
 17 18  1  0  0  0
 18  1  1  0  0  0
  1  2  2  0  0  0
  2  3  1  0  0  0
  3  4  2  0  0  0
  4 19  1  0  0  0
 19 21  1  0  0  0
 21 22  1  0  0  0
 22 23  1  0  0  0
 23 24  1  0  0  0
 23 25  1  0  0  0
 25 26  1  0  0  0
 26 27  1  0  0  0
 27 28  1  0  0  0
 28 29  1  0  0  0
 27 30  1  0  0  0
 30 31  1  0  0  0
 30 32  1  0  0  0
  4  5  1  0  0  0
  5  6  2  0  0  0
  6  7  1  0  0  0
  7  8  2  0  0  0
  8  9  1  0  0  0
  9 10  2  0  0  0
 10 33  1  0  0  0
 33 34  1  0  0  0
 34 35  1  0  0  0
 35 36  1  0  0  0
 36 37  1  0  0  0
 37 38  1  0  0  0
 38 39  1  0  0  0
 39 40  1  0  0  0
 40 41  1  0  0  0
  6 11  1  0  0  0
 11 12  2  0  0  0
 12 13  1  0  0  0
 13 14  2  0  0  0
 14 15  1  0  0  0
 14 16  1  0  0  0
 10  1  1  0  0  0
 41 37  1  0  0  0
 16 11  1  0  0  0
  8  3  1  0  0  0
 24 21  1  0  0  0
 29 23  1  0  0  0
 19 20  1  0  0  0
M  END
> <minimizedAffinity>
-6.62862

> <CNNscore>
0.5081019402

> <CNNaffinity>
6.8432569504

> <CNN_VS>
3.4770722389

> <CNNaffinity_variance>
0.0256031193

$$$$
[H]c1c(-c2nc3c([H])c(OC([H])([H])C([H])([H])C([H])([H])N4C([H])([H])C([H])([H])C([H])([H])C4([H])[H])c(OC([H])([H])[H])c([H])c3c(N([H])C3([H])C([H])([H])C4(C([H])([H])C([H])([H])N(C([H])(C([H])([H])[H])C([H])([H])[H])C([H])([H])C4([H])[H])C3([H])[H])c2[H])oc(C([H])([H])[H])c1[H]


 41 46  0  0  0  0  0  0  0  0999 V2000
   38.2297  -20.6048   36.2336 C   0  0  0  0  0  0  0  0  0  0  0  0
   36.9368  -20.3132   35.8102 C   0  0  0  0  0  0  0  0  0  0  0  0
   36.4409  -19.0461   35.9599 C   0  0  0  0  0  0  0  0  0  0  0  0
   35.1699  -18.7091   35.5529 C   0  0  0  0  0  0  0  0  0  0  0  0
   34.7712  -17.3891   35.7509 C   0  0  0  0  0  0  0  0  0  0  0  0
   35.6137  -16.4485   36.3326 C   0  0  0  0  0  0  0  0  0  0  0  0
   36.8366  -16.8140   36.7132 N   0  0  0  0  0  0  0  0  0  0  0  0
   37.2641  -18.0754   36.5423 C   0  0  0  0  0  0  0  0  0  0  0  0
   38.5494  -18.3484   36.9679 C   0  0  0  0  0  0  0  0  0  0  0  0
   39.0180  -19.6314   36.8030 C   0  0  0  0  0  0  0  0  0  0  0  0
   35.1829  -15.0723   36.5299 C   0  0  0  0  0  0  0  0  0  0  0  0
   35.9380  -13.9273   36.5212 C   0  0  0  0  0  0  0  0  0  0  0  0
   35.0893  -12.8734   36.7529 C   0  0  0  0  0  0  0  0  0  0  0  0
   33.8437  -13.4071   36.8958 C   0  0  0  0  0  0  0  0  0  0  0  0
   32.6109  -12.6302   37.1608 C   0  0  0  0  0  0  0  0  0  0  0  0
   33.9295  -14.7094   36.7591 O   0  0  0  0  0  0  0  0  0  0  0  0
   38.0883  -23.0008   36.6202 C   0  0  0  0  0  0  0  0  0  0  0  0
   38.7448  -21.8748   36.0907 O   0  0  0  0  0  0  0  0  0  0  0  0
   34.2937  -19.6446   34.9736 N   0  0  0  0  0  0  0  0  0  0  0  0
   34.6468  -20.4939   34.4760 H   0  0  0  0  0  0  0  0  0  0  0  0
   32.8409  -19.4815   35.0411 C   0  0  0  0  0  0  0  0  0  0  0  0
   32.0575  -20.2860   34.0350 C   0  0  0  0  0  0  0  0  0  0  0  0
   31.2090  -20.8936   35.1550 C   0  0  0  0  0  0  0  0  0  0  0  0
   32.2206  -20.3447   36.1190 C   0  0  0  0  0  0  0  0  0  0  0  0
   31.1021  -22.3789   35.0464 C   0  0  0  0  0  0  0  0  0  0  0  0
   30.1699  -22.9030   36.1177 C   0  0  0  0  0  0  0  0  0  0  0  0
   28.8922  -22.2797   35.9436 N   0  0  0  0  0  0  0  0  0  0  0  0
   28.9220  -20.8503   36.1751 C   0  0  0  0  0  0  0  0  0  0  0  0
   29.8594  -20.2138   35.1923 C   0  0  0  0  0  0  0  0  0  0  0  0
   27.8393  -22.9364   36.6918 C   0  0  0  0  0  0  0  0  0  0  0  0
   27.0956  -23.9704   35.8868 C   0  0  0  0  0  0  0  0  0  0  0  0
   28.4209  -23.6117   37.9009 C   0  0  0  0  0  0  0  0  0  0  0  0
   40.2930  -19.9338   37.2152 O   0  0  0  0  0  0  0  0  0  0  0  0
   41.2379  -18.9138   37.3761 C   0  0  0  0  0  0  0  0  0  0  0  0
   42.3114  -19.1081   36.3053 C   0  0  0  0  0  0  0  0  0  0  0  0
   41.9495  -20.2763   35.4512 C   0  0  0  0  0  0  0  0  0  0  0  0
   42.1227  -20.0224   34.0511 N   0  0  0  0  0  0  0  0  0  0  0  0
   41.1679  -20.7895   33.2519 C   0  0  0  0  0  0  0  0  0  0  0  0
   39.9854  -19.9251   32.9964 C   0  0  0  0  0  0  0  0  0  0  0  0
   40.3234  -18.6113   33.6462 C   0  0  0  0  0  0  0  0  0  0  0  0
   41.8251  -18.6477   33.7558 C   0  0  0  0  0  0  0  0  0  0  0  0
 17 18  1  0  0  0
 18  1  1  0  0  0
  1  2  2  0  0  0
  2  3  1  0  0  0
  3  4  2  0  0  0
  4 19  1  0  0  0
 19 21  1  0  0  0
 21 22  1  0  0  0
 22 23  1  0  0  0
 23 24  1  0  0  0
 23 25  1  0  0  0
 25 26  1  0  0  0
 26 27  1  0  0  0
 27 28  1  0  0  0
 28 29  1  0  0  0
 27 30  1  0  0  0
 30 31  1  0  0  0
 30 32  1  0  0  0
  4  5  1  0  0  0
  5  6  2  0  0  0
  6  7  1  0  0  0
  7  8  2  0  0  0
  8  9  1  0  0  0
  9 10  2  0  0  0
 10 33  1  0  0  0
 33 34  1  0  0  0
 34 35  1  0  0  0
 35 36  1  0  0  0
 36 37  1  0  0  0
 37 38  1  0  0  0
 38 39  1  0  0  0
 39 40  1  0  0  0
 40 41  1  0  0  0
  6 11  1  0  0  0
 11 12  2  0  0  0
 12 13  1  0  0  0
 13 14  2  0  0  0
 14 15  1  0  0  0
 14 16  1  0  0  0
 10  1  1  0  0  0
 41 37  1  0  0  0
 16 11  1  0  0  0
  8  3  1  0  0  0
 24 21  1  0  0  0
 29 23  1  0  0  0
 19 20  1  0  0  0
M  END
> <minimizedAffinity>
-7.13598

> <CNNscore>
0.3752036393

> <CNNaffinity>
6.6917543411

> <CNN_VS>
2.5107705593

> <CNNaffinity_variance>
0.2216974199

$$$$
[H]c1c([H])c([H])c(C([H])([H])N2C([H])([H])C([H])([H])N(c3nc(N([H])C4([H])C([H])([H])C([H])([H])N(C([H])(C([H])([H])[H])C([H])([H])[H])C([H])([H])C4([H])[H])c4c([H])c(OC([H])([H])[H])c(OC([H])([H])C([H])([H])C([H])([H])N5C([H])([H])C([H])([H])C([H])([H])C5([H])[H])c([H])c4n3)C([H])([H])C([H])([H])C2([H])[H])c([H])c1[H]


 46 51  0  0  0  0  0  0  0  0999 V2000
   36.0834  -14.2385   36.6006 C   0  0  0  0  0  0  0  0  0  0  0  0
   36.7078  -15.4607   36.3548 C   0  0  0  0  0  0  0  0  0  0  0  0
   36.0407  -16.6248   36.0550 C   0  0  0  0  0  0  0  0  0  0  0  0
   36.6838  -17.8189   35.8202 C   0  0  0  0  0  0  0  0  0  0  0  0
   35.9094  -18.9037   35.5362 N   0  0  0  0  0  0  0  0  0  0  0  0
   34.5714  -18.8527   35.4783 C   0  0  0  0  0  0  0  0  0  0  0  0
   33.9675  -17.6764   35.7109 N   0  0  0  0  0  0  0  0  0  0  0  0
   34.6404  -16.5412   36.0010 C   0  0  0  0  0  0  0  0  0  0  0  0
   33.9992  -15.3610   36.2361 C   0  0  0  0  0  0  0  0  0  0  0  0
   34.7105  -14.2190   36.5334 C   0  0  0  0  0  0  0  0  0  0  0  0
   33.7512  -19.9652   35.1877 N   0  0  0  0  0  0  0  0  0  0  0  0
   33.1881  -20.0820   33.8535 C   0  0  0  0  0  0  0  0  0  0  0  0
   31.8456  -19.3881   33.7722 C   0  0  0  0  0  0  0  0  0  0  0  0
   31.0996  -19.4327   35.0843 C   0  0  0  0  0  0  0  0  0  0  0  0
   31.1394  -20.6616   35.7523 N   0  0  0  0  0  0  0  0  0  0  0  0
   32.1146  -20.8815   36.7472 C   0  0  0  0  0  0  0  0  0  0  0  0
   33.5231  -20.9356   36.2543 C   0  0  0  0  0  0  0  0  0  0  0  0
   30.1598  -21.6349   35.5184 C   0  0  0  0  0  0  0  0  0  0  0  0
   29.0800  -21.7347   36.5343 C   0  0  0  0  0  0  0  0  0  0  0  0
   28.3511  -20.6024   36.9008 C   0  0  0  0  0  0  0  0  0  0  0  0
   27.3324  -20.6447   37.8330 C   0  0  0  0  0  0  0  0  0  0  0  0
   27.0056  -21.8289   38.4347 C   0  0  0  0  0  0  0  0  0  0  0  0
   27.7172  -22.9600   38.0837 C   0  0  0  0  0  0  0  0  0  0  0  0
   28.7223  -22.9165   37.1635 C   0  0  0  0  0  0  0  0  0  0  0  0
   38.0872  -13.2630   37.5315 C   0  0  0  0  0  0  0  0  0  0  0  0
   36.8188  -13.0950   36.8998 O   0  0  0  0  0  0  0  0  0  0  0  0
   38.0780  -17.9077   35.8706 N   0  0  0  0  0  0  0  0  0  0  0  0
   38.6804  -17.0835   35.9917 H   0  0  0  0  0  0  0  0  0  0  0  0
   38.7982  -19.1670   35.7563 C   0  0  0  0  0  0  0  0  0  0  0  0
   39.2848  -19.4330   34.3524 C   0  0  0  0  0  0  0  0  0  0  0  0
   39.7264  -20.8787   34.2686 C   0  0  0  0  0  0  0  0  0  0  0  0
   40.5530  -21.1742   35.3893 N   0  0  0  0  0  0  0  0  0  0  0  0
   41.0690  -20.0609   36.1039 C   0  0  0  0  0  0  0  0  0  0  0  0
   39.9332  -19.2711   36.7094 C   0  0  0  0  0  0  0  0  0  0  0  0
   41.4934  -22.2376   35.1709 C   0  0  0  0  0  0  0  0  0  0  0  0
   40.7877  -23.5439   35.4681 C   0  0  0  0  0  0  0  0  0  0  0  0
   42.0800  -22.2325   33.7883 C   0  0  0  0  0  0  0  0  0  0  0  0
   34.0349  -13.0260   36.7706 O   0  0  0  0  0  0  0  0  0  0  0  0
   33.1157  -12.9262   37.8473 C   0  0  0  0  0  0  0  0  0  0  0  0
   32.4064  -11.5977   37.8091 C   0  0  0  0  0  0  0  0  0  0  0  0
   33.4712  -10.5304   37.9196 C   0  0  0  0  0  0  0  0  0  0  0  0
   33.5891   -9.6982   36.7711 N   0  0  0  0  0  0  0  0  0  0  0  0
   34.9282   -9.3253   36.4366 C   0  0  0  0  0  0  0  0  0  0  0  0
   34.7637   -8.1258   35.5555 C   0  0  0  0  0  0  0  0  0  0  0  0
   33.5804   -7.4059   36.1936 C   0  0  0  0  0  0  0  0  0  0  0  0
   32.7462   -8.5448   36.7573 C   0  0  0  0  0  0  0  0  0  0  0  0
 25 26  1  0  0  0
 26  1  1  0  0  0
  1  2  2  0  0  0
  2  3  1  0  0  0
  3  4  2  0  0  0
  4 27  1  0  0  0
 27 29  1  0  0  0
 29 30  1  0  0  0
 30 31  1  0  0  0
 31 32  1  0  0  0
 32 33  1  0  0  0
 33 34  1  0  0  0
 32 35  1  0  0  0
 35 36  1  0  0  0
 35 37  1  0  0  0
  4  5  1  0  0  0
  5  6  2  0  0  0
  6  7  1  0  0  0
  7  8  2  0  0  0
  8  9  1  0  0  0
  9 10  2  0  0  0
 10 38  1  0  0  0
 38 39  1  0  0  0
 39 40  1  0  0  0
 40 41  1  0  0  0
 41 42  1  0  0  0
 42 43  1  0  0  0
 43 44  1  0  0  0
 44 45  1  0  0  0
 45 46  1  0  0  0
  6 11  1  0  0  0
 11 12  1  0  0  0
 12 13  1  0  0  0
 13 14  1  0  0  0
 14 15  1  0  0  0
 15 18  1  0  0  0
 18 19  1  0  0  0
 19 20  2  0  0  0
 20 21  1  0  0  0
 21 22  2  0  0  0
 22 23  1  0  0  0
 23 24  2  0  0  0
 15 16  1  0  0  0
 16 17  1  0  0  0
 10  1  1  0  0  0
 46 42  1  0  0  0
 17 11  1  0  0  0
  8  3  1  0  0  0
 24 19  1  0  0  0
 34 29  1  0  0  0
 27 28  1  0  0  0
M  END
> <minimizedAffinity>
-8.36844

> <CNNscore>
0.6255424619

> <CNNaffinity>
7.5855131149

> <CNN_VS>
4.7450604439

> <CNNaffinity_variance>
0.1065287814

$$$$
[H]c1c([H])c([H])c(C([H])([H])N2C([H])([H])C([H])([H])N(c3nc(N([H])C4([H])C([H])([H])C([H])([H])N(C([H])(C([H])([H])[H])C([H])([H])[H])C([H])([H])C4([H])[H])c4c([H])c(OC([H])([H])[H])c(OC([H])([H])C([H])([H])C([H])([H])N5C([H])([H])C([H])([H])C([H])([H])C5([H])[H])c([H])c4n3)C([H])([H])C([H])([H])C2([H])[H])c([H])c1[H]


 46 51  0  0  0  0  0  0  0  0999 V2000
   36.0248  -14.2916   36.6505 C   0  0  0  0  0  0  0  0  0  0  0  0
   36.6407  -15.5382   36.5477 C   0  0  0  0  0  0  0  0  0  0  0  0
   35.9856  -16.7009   36.2176 C   0  0  0  0  0  0  0  0  0  0  0  0
   36.6194  -17.9194   36.1269 C   0  0  0  0  0  0  0  0  0  0  0  0
   35.8583  -18.9998   35.7944 N   0  0  0  0  0  0  0  0  0  0  0  0
   34.5415  -18.9220   35.5574 C   0  0  0  0  0  0  0  0  0  0  0  0
   33.9462  -17.7223   35.6520 N   0  0  0  0  0  0  0  0  0  0  0  0
   34.6075  -16.5891   35.9746 C   0  0  0  0  0  0  0  0  0  0  0  0
   33.9751  -15.3846   36.0666 C   0  0  0  0  0  0  0  0  0  0  0  0
   34.6737  -14.2450   36.4011 C   0  0  0  0  0  0  0  0  0  0  0  0
   33.7349  -20.0293   35.2136 N   0  0  0  0  0  0  0  0  0  0  0  0
   33.2210  -20.1187   33.8577 C   0  0  0  0  0  0  0  0  0  0  0  0
   31.8807  -19.4252   33.7422 C   0  0  0  0  0  0  0  0  0  0  0  0
   31.0876  -19.4988   35.0250 C   0  0  0  0  0  0  0  0  0  0  0  0
   31.1059  -20.7415   35.6678 N   0  0  0  0  0  0  0  0  0  0  0  0
   32.0447  -20.9810   36.6927 C   0  0  0  0  0  0  0  0  0  0  0  0
   33.4704  -21.0225   36.2504 C   0  0  0  0  0  0  0  0  0  0  0  0
   30.1377  -21.7111   35.3779 C   0  0  0  0  0  0  0  0  0  0  0  0
   29.0007  -21.8066   36.3298 C   0  0  0  0  0  0  0  0  0  0  0  0
   28.4565  -23.0501   36.6543 C   0  0  0  0  0  0  0  0  0  0  0  0
   27.4057  -23.1926   37.5398 C   0  0  0  0  0  0  0  0  0  0  0  0
   26.8595  -22.0888   38.1351 C   0  0  0  0  0  0  0  0  0  0  0  0
   27.3861  -20.8496   37.8252 C   0  0  0  0  0  0  0  0  0  0  0  0
   28.4231  -20.7108   36.9510 C   0  0  0  0  0  0  0  0  0  0  0  0
   38.0747  -13.3236   37.4838 C   0  0  0  0  0  0  0  0  0  0  0  0
   36.7471  -13.1510   36.9900 O   0  0  0  0  0  0  0  0  0  0  0  0
   37.9919  -18.0364   36.3657 N   0  0  0  0  0  0  0  0  0  0  0  0
   38.5056  -17.3821   36.9695 H   0  0  0  0  0  0  0  0  0  0  0  0
   38.8123  -19.0884   35.7844 C   0  0  0  0  0  0  0  0  0  0  0  0
   39.0681  -18.8790   34.3116 C   0  0  0  0  0  0  0  0  0  0  0  0
   39.6414  -20.1594   33.7423 C   0  0  0  0  0  0  0  0  0  0  0  0
   40.6807  -20.6202   34.5990 N   0  0  0  0  0  0  0  0  0  0  0  0
   41.1918  -19.6808   35.5332 C   0  0  0  0  0  0  0  0  0  0  0  0
   40.1027  -19.2739   36.4969 C   0  0  0  0  0  0  0  0  0  0  0  0
   41.6768  -21.4237   33.9470 C   0  0  0  0  0  0  0  0  0  0  0  0
   42.8459  -21.5685   34.8980 C   0  0  0  0  0  0  0  0  0  0  0  0
   41.1591  -22.7625   33.5052 C   0  0  0  0  0  0  0  0  0  0  0  0
   34.0074  -13.0268   36.4900 O   0  0  0  0  0  0  0  0  0  0  0  0
   33.7576  -12.4387   37.7572 C   0  0  0  0  0  0  0  0  0  0  0  0
   32.3546  -12.7474   38.2106 C   0  0  0  0  0  0  0  0  0  0  0  0
   31.4240  -11.9489   37.3267 C   0  0  0  0  0  0  0  0  0  0  0  0
   30.0545  -12.0110   37.7091 N   0  0  0  0  0  0  0  0  0  0  0  0
   29.3444  -10.7753   37.5958 C   0  0  0  0  0  0  0  0  0  0  0  0
   28.1433  -10.9631   38.4700 C   0  0  0  0  0  0  0  0  0  0  0  0
   28.7048  -11.7713   39.6350 C   0  0  0  0  0  0  0  0  0  0  0  0
   29.7972  -12.6035   38.9833 C   0  0  0  0  0  0  0  0  0  0  0  0
 25 26  1  0  0  0
 26  1  1  0  0  0
  1  2  2  0  0  0
  2  3  1  0  0  0
  3  4  2  0  0  0
  4 27  1  0  0  0
 27 29  1  0  0  0
 29 30  1  0  0  0
 30 31  1  0  0  0
 31 32  1  0  0  0
 32 33  1  0  0  0
 33 34  1  0  0  0
 32 35  1  0  0  0
 35 36  1  0  0  0
 35 37  1  0  0  0
  4  5  1  0  0  0
  5  6  2  0  0  0
  6  7  1  0  0  0
  7  8  2  0  0  0
  8  9  1  0  0  0
  9 10  2  0  0  0
 10 38  1  0  0  0
 38 39  1  0  0  0
 39 40  1  0  0  0
 40 41  1  0  0  0
 41 42  1  0  0  0
 42 43  1  0  0  0
 43 44  1  0  0  0
 44 45  1  0  0  0
 45 46  1  0  0  0
  6 11  1  0  0  0
 11 12  1  0  0  0
 12 13  1  0  0  0
 13 14  1  0  0  0
 14 15  1  0  0  0
 15 18  1  0  0  0
 18 19  1  0  0  0
 19 20  2  0  0  0
 20 21  1  0  0  0
 21 22  2  0  0  0
 22 23  1  0  0  0
 23 24  2  0  0  0
 15 16  1  0  0  0
 16 17  1  0  0  0
 10  1  1  0  0  0
 46 42  1  0  0  0
 17 11  1  0  0  0
  8  3  1  0  0  0
 24 19  1  0  0  0
 34 29  1  0  0  0
 27 28  1  0  0  0
M  END
> <minimizedAffinity>
-9.26213

> <CNNscore>
0.6249257922

> <CNNaffinity>
7.3672666550

> <CNN_VS>
4.6039948463

> <CNNaffinity_variance>
0.2308855951

$$$$
[H]c1c([H])c([H])c(C([H])([H])N2C([H])([H])C([H])([H])N(c3nc(N([H])C4([H])C([H])([H])C([H])([H])N(C([H])(C([H])([H])[H])C([H])([H])[H])C([H])([H])C4([H])[H])c4c([H])c(OC([H])([H])[H])c(OC([H])([H])C([H])([H])C([H])([H])N5C([H])([H])C([H])([H])C([H])([H])C5([H])[H])c([H])c4n3)C([H])([H])C([H])([H])C2([H])[H])c([H])c1[H]


 46 51  0  0  0  0  0  0  0  0999 V2000
   36.1011  -13.9356   36.7224 C   0  0  0  0  0  0  0  0  0  0  0  0
   36.4479  -15.1252   36.0833 C   0  0  0  0  0  0  0  0  0  0  0  0
   35.5617  -16.1354   35.7928 C   0  0  0  0  0  0  0  0  0  0  0  0
   35.9334  -17.3017   35.1634 C   0  0  0  0  0  0  0  0  0  0  0  0
   34.9613  -18.2289   34.9344 N   0  0  0  0  0  0  0  0  0  0  0  0
   33.6820  -18.0513   35.2922 C   0  0  0  0  0  0  0  0  0  0  0  0
   33.3443  -16.9053   35.9046 N   0  0  0  0  0  0  0  0  0  0  0  0
   34.2291  -15.9217   36.1789 C   0  0  0  0  0  0  0  0  0  0  0  0
   33.8571  -14.7691   36.8055 C   0  0  0  0  0  0  0  0  0  0  0  0
   34.7814  -13.7838   37.0763 C   0  0  0  0  0  0  0  0  0  0  0  0
   32.6604  -19.0000   35.0659 N   0  0  0  0  0  0  0  0  0  0  0  0
   31.8800  -19.4629   36.2005 C   0  0  0  0  0  0  0  0  0  0  0  0
   32.5213  -20.6772   36.8367 C   0  0  0  0  0  0  0  0  0  0  0  0
   33.2590  -21.5266   35.8296 C   0  0  0  0  0  0  0  0  0  0  0  0
   32.5948  -21.7233   34.6138 N   0  0  0  0  0  0  0  0  0  0  0  0
   32.8764  -20.8762   33.5219 C   0  0  0  0  0  0  0  0  0  0  0  0
   32.4506  -19.4553   33.6948 C   0  0  0  0  0  0  0  0  0  0  0  0
   31.7329  -22.8132   34.4378 C   0  0  0  0  0  0  0  0  0  0  0  0
   30.5455  -22.8601   35.3297 C   0  0  0  0  0  0  0  0  0  0  0  0
   30.3711  -23.9251   36.2147 C   0  0  0  0  0  0  0  0  0  0  0  0
   29.2895  -24.0103   37.0700 C   0  0  0  0  0  0  0  0  0  0  0  0
   28.3390  -23.0267   37.0696 C   0  0  0  0  0  0  0  0  0  0  0  0
   28.4959  -21.9649   36.1997 C   0  0  0  0  0  0  0  0  0  0  0  0
   29.5638  -21.8823   35.3561 C   0  0  0  0  0  0  0  0  0  0  0  0
   38.3217  -13.3659   37.4823 C   0  0  0  0  0  0  0  0  0  0  0  0
   37.0489  -12.9513   36.9879 O   0  0  0  0  0  0  0  0  0  0  0  0
   37.2586  -17.5191   34.7748 N   0  0  0  0  0  0  0  0  0  0  0  0
   37.7335  -16.9323   34.0771 H   0  0  0  0  0  0  0  0  0  0  0  0
   38.0803  -18.5897   35.3194 C   0  0  0  0  0  0  0  0  0  0  0  0
   37.7661  -18.8852   36.7659 C   0  0  0  0  0  0  0  0  0  0  0  0
   38.8656  -19.7659   37.3205 C   0  0  0  0  0  0  0  0  0  0  0  0
   39.1149  -20.8253   36.4030 N   0  0  0  0  0  0  0  0  0  0  0  0
   38.1199  -21.0525   35.4157 C   0  0  0  0  0  0  0  0  0  0  0  0
   38.0003  -19.8409   34.5223 C   0  0  0  0  0  0  0  0  0  0  0  0
   39.6528  -22.0155   37.0004 C   0  0  0  0  0  0  0  0  0  0  0  0
   40.1868  -21.6431   38.3674 C   0  0  0  0  0  0  0  0  0  0  0  0
   38.6557  -23.1354   37.0868 C   0  0  0  0  0  0  0  0  0  0  0  0
   34.3794  -12.6163   37.7175 O   0  0  0  0  0  0  0  0  0  0  0  0
   33.3602  -11.8051   37.1540 C   0  0  0  0  0  0  0  0  0  0  0  0
   32.0102  -12.2214   37.6771 C   0  0  0  0  0  0  0  0  0  0  0  0
   31.0505  -11.0999   37.3513 C   0  0  0  0  0  0  0  0  0  0  0  0
   29.7191  -11.3166   37.8051 N   0  0  0  0  0  0  0  0  0  0  0  0
   29.0953  -10.1752   38.3986 C   0  0  0  0  0  0  0  0  0  0  0  0
   27.9651  -10.7499   39.1951 C   0  0  0  0  0  0  0  0  0  0  0  0
   28.5653  -12.0432   39.7362 C   0  0  0  0  0  0  0  0  0  0  0  0
   29.5316  -12.4609   38.6395 C   0  0  0  0  0  0  0  0  0  0  0  0
 25 26  1  0  0  0
 26  1  1  0  0  0
  1  2  2  0  0  0
  2  3  1  0  0  0
  3  4  2  0  0  0
  4 27  1  0  0  0
 27 29  1  0  0  0
 29 30  1  0  0  0
 30 31  1  0  0  0
 31 32  1  0  0  0
 32 33  1  0  0  0
 33 34  1  0  0  0
 32 35  1  0  0  0
 35 36  1  0  0  0
 35 37  1  0  0  0
  4  5  1  0  0  0
  5  6  2  0  0  0
  6  7  1  0  0  0
  7  8  2  0  0  0
  8  9  1  0  0  0
  9 10  2  0  0  0
 10 38  1  0  0  0
 38 39  1  0  0  0
 39 40  1  0  0  0
 40 41  1  0  0  0
 41 42  1  0  0  0
 42 43  1  0  0  0
 43 44  1  0  0  0
 44 45  1  0  0  0
 45 46  1  0  0  0
  6 11  1  0  0  0
 11 12  1  0  0  0
 12 13  1  0  0  0
 13 14  1  0  0  0
 14 15  1  0  0  0
 15 18  1  0  0  0
 18 19  1  0  0  0
 19 20  2  0  0  0
 20 21  1  0  0  0
 21 22  2  0  0  0
 22 23  1  0  0  0
 23 24  2  0  0  0
 15 16  1  0  0  0
 16 17  1  0  0  0
 10  1  1  0  0  0
 46 42  1  0  0  0
 17 11  1  0  0  0
  8  3  1  0  0  0
 24 19  1  0  0  0
 34 29  1  0  0  0
 27 28  1  0  0  0
M  END
> <minimizedAffinity>
-7.26219

> <CNNscore>
0.5442851782

> <CNNaffinity>
7.5236406326

> <CNN_VS>
4.0950059891

> <CNNaffinity_variance>
0.0452094711

$$$$
[H]c1c([H])c([H])c(C([H])([H])N2C([H])([H])C([H])([H])N(c3nc(N([H])C4([H])C([H])([H])C([H])([H])N(C([H])(C([H])([H])[H])C([H])([H])[H])C([H])([H])C4([H])[H])c4c([H])c(OC([H])([H])[H])c(OC([H])([H])C([H])([H])C([H])([H])N5C([H])([H])C([H])([H])C([H])([H])C5([H])[H])c([H])c4n3)C([H])([H])C([H])([H])C2([H])[H])c([H])c1[H]


 46 51  0  0  0  0  0  0  0  0999 V2000
   36.1083  -14.2626   36.6612 C   0  0  0  0  0  0  0  0  0  0  0  0
   36.7076  -15.5177   36.5637 C   0  0  0  0  0  0  0  0  0  0  0  0
   36.0364  -16.6737   36.2422 C   0  0  0  0  0  0  0  0  0  0  0  0
   36.6540  -17.9008   36.1566 C   0  0  0  0  0  0  0  0  0  0  0  0
   35.8778  -18.9730   35.8326 N   0  0  0  0  0  0  0  0  0  0  0  0
   34.5614  -18.8794   35.5991 C   0  0  0  0  0  0  0  0  0  0  0  0
   33.9821  -17.6716   35.6886 N   0  0  0  0  0  0  0  0  0  0  0  0
   34.6591  -16.5453   36.0028 C   0  0  0  0  0  0  0  0  0  0  0  0
   34.0427  -15.3320   36.0897 C   0  0  0  0  0  0  0  0  0  0  0  0
   34.7571  -14.1998   36.4156 C   0  0  0  0  0  0  0  0  0  0  0  0
   33.7394  -19.9781   35.2641 N   0  0  0  0  0  0  0  0  0  0  0  0
   33.2062  -20.0595   33.9151 C   0  0  0  0  0  0  0  0  0  0  0  0
   31.8713  -19.3527   33.8193 C   0  0  0  0  0  0  0  0  0  0  0  0
   31.0951  -19.4213   35.1127 C   0  0  0  0  0  0  0  0  0  0  0  0
   31.1099  -20.6655   35.7527 N   0  0  0  0  0  0  0  0  0  0  0  0
   32.0603  -20.9164   36.7642 C   0  0  0  0  0  0  0  0  0  0  0  0
   33.4793  -20.9708   36.3024 C   0  0  0  0  0  0  0  0  0  0  0  0
   30.1284  -21.6250   35.4740 C   0  0  0  0  0  0  0  0  0  0  0  0
   30.5712  -23.0431   35.5046 C   0  0  0  0  0  0  0  0  0  0  0  0
   30.3435  -23.8277   36.6360 C   0  0  0  0  0  0  0  0  0  0  0  0
   30.7277  -25.1526   36.7105 C   0  0  0  0  0  0  0  0  0  0  0  0
   31.3571  -25.7422   35.6487 C   0  0  0  0  0  0  0  0  0  0  0  0
   31.5906  -24.9799   34.5203 C   0  0  0  0  0  0  0  0  0  0  0  0
   31.2109  -23.6723   34.4485 C   0  0  0  0  0  0  0  0  0  0  0  0
   38.1627  -13.3178   37.5097 C   0  0  0  0  0  0  0  0  0  0  0  0
   36.8464  -13.1296   36.9920 O   0  0  0  0  0  0  0  0  0  0  0  0
   38.0255  -18.0343   36.3920 N   0  0  0  0  0  0  0  0  0  0  0  0
   38.5834  -17.2977   36.8423 H   0  0  0  0  0  0  0  0  0  0  0  0
   38.7828  -19.2209   36.0226 C   0  0  0  0  0  0  0  0  0  0  0  0
   39.1219  -19.2595   34.5522 C   0  0  0  0  0  0  0  0  0  0  0  0
   39.6140  -20.6509   34.2147 C   0  0  0  0  0  0  0  0  0  0  0  0
   40.5719  -21.0503   35.1890 N   0  0  0  0  0  0  0  0  0  0  0  0
   41.1149  -20.0190   36.0001 C   0  0  0  0  0  0  0  0  0  0  0  0
   40.0199  -19.3896   36.8279 C   0  0  0  0  0  0  0  0  0  0  0  0
   41.5277  -22.0157   34.7228 C   0  0  0  0  0  0  0  0  0  0  0  0
   41.0835  -23.3772   35.2141 C   0  0  0  0  0  0  0  0  0  0  0  0
   41.7029  -22.0003   33.2312 C   0  0  0  0  0  0  0  0  0  0  0  0
   34.1070  -12.9725   36.4995 O   0  0  0  0  0  0  0  0  0  0  0  0
   33.8131  -12.4038   37.7661 C   0  0  0  0  0  0  0  0  0  0  0  0
   32.4044  -12.7427   38.1784 C   0  0  0  0  0  0  0  0  0  0  0  0
   31.4952  -12.2447   37.0783 C   0  0  0  0  0  0  0  0  0  0  0  0
   30.2163  -11.8093   37.5261 N   0  0  0  0  0  0  0  0  0  0  0  0
   30.0921  -10.3957   37.7004 C   0  0  0  0  0  0  0  0  0  0  0  0
   28.9010  -10.2416   38.5946 C   0  0  0  0  0  0  0  0  0  0  0  0
   29.0426  -11.4280   39.5423 C   0  0  0  0  0  0  0  0  0  0  0  0
   29.7023  -12.4869   38.6739 C   0  0  0  0  0  0  0  0  0  0  0  0
 25 26  1  0  0  0
 26  1  1  0  0  0
  1  2  2  0  0  0
  2  3  1  0  0  0
  3  4  2  0  0  0
  4 27  1  0  0  0
 27 29  1  0  0  0
 29 30  1  0  0  0
 30 31  1  0  0  0
 31 32  1  0  0  0
 32 33  1  0  0  0
 33 34  1  0  0  0
 32 35  1  0  0  0
 35 36  1  0  0  0
 35 37  1  0  0  0
  4  5  1  0  0  0
  5  6  2  0  0  0
  6  7  1  0  0  0
  7  8  2  0  0  0
  8  9  1  0  0  0
  9 10  2  0  0  0
 10 38  1  0  0  0
 38 39  1  0  0  0
 39 40  1  0  0  0
 40 41  1  0  0  0
 41 42  1  0  0  0
 42 43  1  0  0  0
 43 44  1  0  0  0
 44 45  1  0  0  0
 45 46  1  0  0  0
  6 11  1  0  0  0
 11 12  1  0  0  0
 12 13  1  0  0  0
 13 14  1  0  0  0
 14 15  1  0  0  0
 15 18  1  0  0  0
 18 19  1  0  0  0
 19 20  2  0  0  0
 20 21  1  0  0  0
 21 22  2  0  0  0
 22 23  1  0  0  0
 23 24  2  0  0  0
 15 16  1  0  0  0
 16 17  1  0  0  0
 10  1  1  0  0  0
 46 42  1  0  0  0
 17 11  1  0  0  0
  8  3  1  0  0  0
 24 19  1  0  0  0
 34 29  1  0  0  0
 27 28  1  0  0  0
M  END
> <minimizedAffinity>
-8.62168

> <CNNscore>
0.5117070079

> <CNNaffinity>
7.3333768845

> <CNN_VS>
3.7525403500

> <CNNaffinity_variance>
0.1517492533

$$$$
[H]c1c([H])c([H])c(C([H])([H])N2C([H])([H])C([H])([H])N(c3nc(N([H])C4([H])C([H])([H])C([H])([H])N(C([H])(C([H])([H])[H])C([H])([H])[H])C([H])([H])C4([H])[H])c4c([H])c(OC([H])([H])[H])c(OC([H])([H])C([H])([H])C([H])([H])N5C([H])([H])C([H])([H])C([H])([H])C5([H])[H])c([H])c4n3)C([H])([H])C([H])([H])C2([H])[H])c([H])c1[H]


 46 51  0  0  0  0  0  0  0  0999 V2000
   36.0919  -14.7607   36.2977 C   0  0  0  0  0  0  0  0  0  0  0  0
   36.5587  -16.0494   36.0424 C   0  0  0  0  0  0  0  0  0  0  0  0
   35.7493  -17.1261   35.7673 C   0  0  0  0  0  0  0  0  0  0  0  0
   36.2384  -18.3892   35.5223 C   0  0  0  0  0  0  0  0  0  0  0  0
   35.3325  -19.3743   35.2654 N   0  0  0  0  0  0  0  0  0  0  0  0
   34.0091  -19.1636   35.2428 C   0  0  0  0  0  0  0  0  0  0  0  0
   33.5567  -17.9229   35.4847 N   0  0  0  0  0  0  0  0  0  0  0  0
   34.3681  -16.8756   35.7502 C   0  0  0  0  0  0  0  0  0  0  0  0
   33.8792  -15.6266   35.9955 C   0  0  0  0  0  0  0  0  0  0  0  0
   34.7298  -14.5771   36.2671 C   0  0  0  0  0  0  0  0  0  0  0  0
   33.0541  -20.1706   34.9807 N   0  0  0  0  0  0  0  0  0  0  0  0
   32.2806  -20.0903   33.7536 C   0  0  0  0  0  0  0  0  0  0  0  0
   31.0119  -19.2933   33.9671 C   0  0  0  0  0  0  0  0  0  0  0  0
   30.4798  -19.4330   35.3733 C   0  0  0  0  0  0  0  0  0  0  0  0
   30.5100  -20.7303   35.8969 N   0  0  0  0  0  0  0  0  0  0  0  0
   31.6045  -21.1359   36.6886 C   0  0  0  0  0  0  0  0  0  0  0  0
   32.9073  -21.2379   35.9660 C   0  0  0  0  0  0  0  0  0  0  0  0
   29.4201  -21.5942   35.7310 C   0  0  0  0  0  0  0  0  0  0  0  0
   28.4847  -21.6968   36.8809 C   0  0  0  0  0  0  0  0  0  0  0  0
   27.8294  -20.5612   37.3592 C   0  0  0  0  0  0  0  0  0  0  0  0
   26.9443  -20.6058   38.4189 C   0  0  0  0  0  0  0  0  0  0  0  0
   26.6824  -21.7956   39.0409 C   0  0  0  0  0  0  0  0  0  0  0  0
   27.3227  -22.9300   38.5804 C   0  0  0  0  0  0  0  0  0  0  0  0
   28.1960  -22.8843   37.5344 C   0  0  0  0  0  0  0  0  0  0  0  0
   37.7975  -13.8199   37.7255 C   0  0  0  0  0  0  0  0  0  0  0  0
   36.9665  -13.7126   36.5706 O   0  0  0  0  0  0  0  0  0  0  0  0
   37.6129  -18.6440   35.5360 N   0  0  0  0  0  0  0  0  0  0  0  0
   38.2111  -18.4944   34.7135 H   0  0  0  0  0  0  0  0  0  0  0  0
   38.3166  -19.1415   36.7087 C   0  0  0  0  0  0  0  0  0  0  0  0
   38.0478  -20.6035   36.9710 C   0  0  0  0  0  0  0  0  0  0  0  0
   38.5513  -20.9373   38.3592 C   0  0  0  0  0  0  0  0  0  0  0  0
   39.8615  -20.4030   38.5155 N   0  0  0  0  0  0  0  0  0  0  0  0
   40.5346  -20.0235   37.3242 C   0  0  0  0  0  0  0  0  0  0  0  0
   39.7818  -18.9036   36.6463 C   0  0  0  0  0  0  0  0  0  0  0  0
   40.6768  -21.0973   39.4726 C   0  0  0  0  0  0  0  0  0  0  0  0
   41.8773  -20.2249   39.7730 C   0  0  0  0  0  0  0  0  0  0  0  0
   39.9349  -21.4614   40.7266 C   0  0  0  0  0  0  0  0  0  0  0  0
   34.2084  -13.3113   36.5153 O   0  0  0  0  0  0  0  0  0  0  0  0
   32.8292  -13.1505   36.8086 C   0  0  0  0  0  0  0  0  0  0  0  0
   32.6454  -12.1833   37.9488 C   0  0  0  0  0  0  0  0  0  0  0  0
   31.5252  -11.2487   37.5529 C   0  0  0  0  0  0  0  0  0  0  0  0
   30.2215  -11.8016   37.6960 N   0  0  0  0  0  0  0  0  0  0  0  0
   29.1521  -10.8755   37.4890 C   0  0  0  0  0  0  0  0  0  0  0  0
   27.9733  -11.5274   38.1428 C   0  0  0  0  0  0  0  0  0  0  0  0
   28.5965  -12.1851   39.3694 C   0  0  0  0  0  0  0  0  0  0  0  0
   29.9958  -12.5436   38.8957 C   0  0  0  0  0  0  0  0  0  0  0  0
 25 26  1  0  0  0
 26  1  1  0  0  0
  1  2  2  0  0  0
  2  3  1  0  0  0
  3  4  2  0  0  0
  4 27  1  0  0  0
 27 29  1  0  0  0
 29 30  1  0  0  0
 30 31  1  0  0  0
 31 32  1  0  0  0
 32 33  1  0  0  0
 33 34  1  0  0  0
 32 35  1  0  0  0
 35 36  1  0  0  0
 35 37  1  0  0  0
  4  5  1  0  0  0
  5  6  2  0  0  0
  6  7  1  0  0  0
  7  8  2  0  0  0
  8  9  1  0  0  0
  9 10  2  0  0  0
 10 38  1  0  0  0
 38 39  1  0  0  0
 39 40  1  0  0  0
 40 41  1  0  0  0
 41 42  1  0  0  0
 42 43  1  0  0  0
 43 44  1  0  0  0
 44 45  1  0  0  0
 45 46  1  0  0  0
  6 11  1  0  0  0
 11 12  1  0  0  0
 12 13  1  0  0  0
 13 14  1  0  0  0
 14 15  1  0  0  0
 15 18  1  0  0  0
 18 19  1  0  0  0
 19 20  2  0  0  0
 20 21  1  0  0  0
 21 22  2  0  0  0
 22 23  1  0  0  0
 23 24  2  0  0  0
 15 16  1  0  0  0
 16 17  1  0  0  0
 10  1  1  0  0  0
 46 42  1  0  0  0
 17 11  1  0  0  0
  8  3  1  0  0  0
 24 19  1  0  0  0
 34 29  1  0  0  0
 27 28  1  0  0  0
M  END
> <minimizedAffinity>
-8.45663

> <CNNscore>
0.5000130534

> <CNNaffinity>
7.1765747070

> <CNN_VS>
3.5883810520

> <CNNaffinity_variance>
0.3216834068

$$$$
[H]c1c([H])c([H])c(C([H])([H])N2C([H])([H])C([H])([H])N(c3nc(N([H])C4([H])C([H])([H])C([H])([H])N(C([H])(C([H])([H])[H])C([H])([H])[H])C([H])([H])C4([H])[H])c4c([H])c(OC([H])([H])[H])c(OC([H])([H])C([H])([H])C([H])([H])N5C([H])([H])C([H])([H])C([H])([H])C5([H])[H])c([H])c4n3)C([H])([H])C([H])([H])C2([H])[H])c([H])c1[H]


 46 51  0  0  0  0  0  0  0  0999 V2000
   36.0603  -14.4609   36.3239 C   0  0  0  0  0  0  0  0  0  0  0  0
   36.6608  -15.6842   36.0292 C   0  0  0  0  0  0  0  0  0  0  0  0
   35.9697  -16.8460   35.7789 C   0  0  0  0  0  0  0  0  0  0  0  0
   36.5898  -18.0413   35.4938 C   0  0  0  0  0  0  0  0  0  0  0  0
   35.7931  -19.1236   35.2677 N   0  0  0  0  0  0  0  0  0  0  0  0
   34.4547  -19.0689   35.3117 C   0  0  0  0  0  0  0  0  0  0  0  0
   33.8735  -17.8916   35.5917 N   0  0  0  0  0  0  0  0  0  0  0  0
   34.5696  -16.7587   35.8317 C   0  0  0  0  0  0  0  0  0  0  0  0
   33.9513  -15.5773   36.1170 C   0  0  0  0  0  0  0  0  0  0  0  0
   34.6862  -14.4377   36.3613 C   0  0  0  0  0  0  0  0  0  0  0  0
   33.6117  -20.1787   35.0824 N   0  0  0  0  0  0  0  0  0  0  0  0
   32.9710  -20.3066   33.7848 C   0  0  0  0  0  0  0  0  0  0  0  0
   31.6306  -19.6041   33.7737 C   0  0  0  0  0  0  0  0  0  0  0  0
   30.9621  -19.6285   35.1274 C   0  0  0  0  0  0  0  0  0  0  0  0
   31.0328  -20.8500   35.8063 N   0  0  0  0  0  0  0  0  0  0  0  0
   32.0629  -21.0657   36.7452 C   0  0  0  0  0  0  0  0  0  0  0  0
   33.4400  -21.1354   36.1717 C   0  0  0  0  0  0  0  0  0  0  0  0
   30.0350  -21.8188   35.6413 C   0  0  0  0  0  0  0  0  0  0  0  0
   30.4956  -23.2304   35.5835 C   0  0  0  0  0  0  0  0  0  0  0  0
   31.2028  -23.6954   34.4738 C   0  0  0  0  0  0  0  0  0  0  0  0
   31.6599  -24.9954   34.3761 C   0  0  0  0  0  0  0  0  0  0  0  0
   31.4239  -25.8808   35.3917 C   0  0  0  0  0  0  0  0  0  0  0  0
   30.7251  -25.4372   36.4979 C   0  0  0  0  0  0  0  0  0  0  0  0
   30.2745  -24.1539   36.5927 C   0  0  0  0  0  0  0  0  0  0  0  0
   37.8952  -13.4205   37.5002 C   0  0  0  0  0  0  0  0  0  0  0  0
   36.8194  -13.3199   36.5682 O   0  0  0  0  0  0  0  0  0  0  0  0
   37.9835  -18.1338   35.4379 N   0  0  0  0  0  0  0  0  0  0  0  0
   38.5828  -17.3273   35.2205 H   0  0  0  0  0  0  0  0  0  0  0  0
   38.7076  -19.3726   35.6805 C   0  0  0  0  0  0  0  0  0  0  0  0
   39.3211  -19.9427   34.4246 C   0  0  0  0  0  0  0  0  0  0  0  0
   39.7643  -21.3611   34.7140 C   0  0  0  0  0  0  0  0  0  0  0  0
   40.4830  -21.3780   35.9427 N   0  0  0  0  0  0  0  0  0  0  0  0
   40.9340  -20.1219   36.4276 C   0  0  0  0  0  0  0  0  0  0  0  0
   39.7493  -19.2359   36.7309 C   0  0  0  0  0  0  0  0  0  0  0  0
   41.4364  -22.4459   36.0595 C   0  0  0  0  0  0  0  0  0  0  0  0
   42.4323  -22.2992   34.9285 C   0  0  0  0  0  0  0  0  0  0  0  0
   42.1230  -22.4810   37.3948 C   0  0  0  0  0  0  0  0  0  0  0  0
   34.0340  -13.2434   36.6513 O   0  0  0  0  0  0  0  0  0  0  0  0
   32.6594  -13.0842   36.3362 C   0  0  0  0  0  0  0  0  0  0  0  0
   32.0183  -12.0944   37.2736 C   0  0  0  0  0  0  0  0  0  0  0  0
   33.1414  -11.3840   37.9940 C   0  0  0  0  0  0  0  0  0  0  0  0
   33.1321   -9.9687   37.8439 N   0  0  0  0  0  0  0  0  0  0  0  0
   31.9315   -9.4339   37.2812 C   0  0  0  0  0  0  0  0  0  0  0  0
   32.3312   -8.0766   36.7913 C   0  0  0  0  0  0  0  0  0  0  0  0
   33.7437   -8.3159   36.2684 C   0  0  0  0  0  0  0  0  0  0  0  0
   34.2687   -9.4124   37.1810 C   0  0  0  0  0  0  0  0  0  0  0  0
 25 26  1  0  0  0
 26  1  1  0  0  0
  1  2  2  0  0  0
  2  3  1  0  0  0
  3  4  2  0  0  0
  4 27  1  0  0  0
 27 29  1  0  0  0
 29 30  1  0  0  0
 30 31  1  0  0  0
 31 32  1  0  0  0
 32 33  1  0  0  0
 33 34  1  0  0  0
 32 35  1  0  0  0
 35 36  1  0  0  0
 35 37  1  0  0  0
  4  5  1  0  0  0
  5  6  2  0  0  0
  6  7  1  0  0  0
  7  8  2  0  0  0
  8  9  1  0  0  0
  9 10  2  0  0  0
 10 38  1  0  0  0
 38 39  1  0  0  0
 39 40  1  0  0  0
 40 41  1  0  0  0
 41 42  1  0  0  0
 42 43  1  0  0  0
 43 44  1  0  0  0
 44 45  1  0  0  0
 45 46  1  0  0  0
  6 11  1  0  0  0
 11 12  1  0  0  0
 12 13  1  0  0  0
 13 14  1  0  0  0
 14 15  1  0  0  0
 15 18  1  0  0  0
 18 19  1  0  0  0
 19 20  2  0  0  0
 20 21  1  0  0  0
 21 22  2  0  0  0
 22 23  1  0  0  0
 23 24  2  0  0  0
 15 16  1  0  0  0
 16 17  1  0  0  0
 10  1  1  0  0  0
 46 42  1  0  0  0
 17 11  1  0  0  0
  8  3  1  0  0  0
 24 19  1  0  0  0
 34 29  1  0  0  0
 27 28  1  0  0  0
M  END
> <minimizedAffinity>
-7.93187

> <CNNscore>
0.4402445555

> <CNNaffinity>
7.2087006569

> <CNN_VS>
3.1735911369

> <CNNaffinity_variance>
0.1280767620

$$$$
[H]c1c([H])c([H])c(C([H])([H])N2C([H])([H])C([H])([H])N(c3nc(N([H])C4([H])C([H])([H])C([H])([H])N(C([H])(C([H])([H])[H])C([H])([H])[H])C([H])([H])C4([H])[H])c4c([H])c(OC([H])([H])[H])c(OC([H])([H])C([H])([H])C([H])([H])N5C([H])([H])C([H])([H])C([H])([H])C5([H])[H])c([H])c4n3)C([H])([H])C([H])([H])C2([H])[H])c([H])c1[H]


 46 51  0  0  0  0  0  0  0  0999 V2000
   36.0759  -14.7631   36.1604 C   0  0  0  0  0  0  0  0  0  0  0  0
   36.3973  -16.1064   35.9700 C   0  0  0  0  0  0  0  0  0  0  0  0
   35.4706  -17.1124   35.8315 C   0  0  0  0  0  0  0  0  0  0  0  0
   35.8173  -18.4318   35.6479 C   0  0  0  0  0  0  0  0  0  0  0  0
   34.8049  -19.3360   35.5273 N   0  0  0  0  0  0  0  0  0  0  0  0
   33.5097  -18.9956   35.5798 C   0  0  0  0  0  0  0  0  0  0  0  0
   33.1971  -17.7023   35.7594 N   0  0  0  0  0  0  0  0  0  0  0  0
   34.1223  -16.7264   35.8904 C   0  0  0  0  0  0  0  0  0  0  0  0
   33.7744  -15.4209   36.0753 C   0  0  0  0  0  0  0  0  0  0  0  0
   34.7391  -14.4463   36.2095 C   0  0  0  0  0  0  0  0  0  0  0  0
   32.4461  -19.9170   35.4590 N   0  0  0  0  0  0  0  0  0  0  0  0
   31.8277  -20.4252   36.6714 C   0  0  0  0  0  0  0  0  0  0  0  0
   32.5278  -21.6789   37.1492 C   0  0  0  0  0  0  0  0  0  0  0  0
   33.0944  -22.4871   36.0064 C   0  0  0  0  0  0  0  0  0  0  0  0
   32.2578  -22.6129   34.8918 N   0  0  0  0  0  0  0  0  0  0  0  0
   32.3972  -21.7160   33.8123 C   0  0  0  0  0  0  0  0  0  0  0  0
   32.0312  -20.2997   34.1127 C   0  0  0  0  0  0  0  0  0  0  0  0
   31.3565  -23.6802   34.7908 C   0  0  0  0  0  0  0  0  0  0  0  0
   30.0278  -23.4777   35.4244 C   0  0  0  0  0  0  0  0  0  0  0  0
   29.3364  -24.5594   35.9717 C   0  0  0  0  0  0  0  0  0  0  0  0
   28.1032  -24.4220   36.5790 C   0  0  0  0  0  0  0  0  0  0  0  0
   27.5152  -23.1896   36.6604 C   0  0  0  0  0  0  0  0  0  0  0  0
   28.1859  -22.1075   36.1236 C   0  0  0  0  0  0  0  0  0  0  0  0
   29.4028  -22.2449   35.5244 C   0  0  0  0  0  0  0  0  0  0  0  0
   37.7315  -13.6873   37.5514 C   0  0  0  0  0  0  0  0  0  0  0  0
   37.0645  -13.7922   36.2943 O   0  0  0  0  0  0  0  0  0  0  0  0
   37.1584  -18.8218   35.5865 N   0  0  0  0  0  0  0  0  0  0  0  0
   37.7067  -18.7809   34.7179 H   0  0  0  0  0  0  0  0  0  0  0  0
   37.8946  -19.3183   36.7394 C   0  0  0  0  0  0  0  0  0  0  0  0
   37.7352  -20.8066   36.9339 C   0  0  0  0  0  0  0  0  0  0  0  0
   38.2591  -21.1648   38.3084 C   0  0  0  0  0  0  0  0  0  0  0  0
   39.5253  -20.5420   38.4961 N   0  0  0  0  0  0  0  0  0  0  0  0
   40.1709  -20.0596   37.3270 C   0  0  0  0  0  0  0  0  0  0  0  0
   39.3381  -18.9693   36.6961 C   0  0  0  0  0  0  0  0  0  0  0  0
   40.3881  -21.2164   39.4254 C   0  0  0  0  0  0  0  0  0  0  0  0
   41.7963  -20.7092   39.1971 C   0  0  0  0  0  0  0  0  0  0  0  0
   39.9666  -21.0415   40.8563 C   0  0  0  0  0  0  0  0  0  0  0  0
   34.3609  -13.1207   36.3983 O   0  0  0  0  0  0  0  0  0  0  0  0
   33.1481  -12.8111   37.0670 C   0  0  0  0  0  0  0  0  0  0  0  0
   33.3557  -11.6679   38.0260 C   0  0  0  0  0  0  0  0  0  0  0  0
   32.4739  -10.5350   37.5529 C   0  0  0  0  0  0  0  0  0  0  0  0
   33.1572   -9.3020   37.3571 N   0  0  0  0  0  0  0  0  0  0  0  0
   32.4830   -8.3722   36.5057 C   0  0  0  0  0  0  0  0  0  0  0  0
   33.5584   -7.4212   36.0799 C   0  0  0  0  0  0  0  0  0  0  0  0
   34.7664   -8.3380   35.9186 C   0  0  0  0  0  0  0  0  0  0  0  0
   34.5270   -9.4124   36.9669 C   0  0  0  0  0  0  0  0  0  0  0  0
 25 26  1  0  0  0
 26  1  1  0  0  0
  1  2  2  0  0  0
  2  3  1  0  0  0
  3  4  2  0  0  0
  4 27  1  0  0  0
 27 29  1  0  0  0
 29 30  1  0  0  0
 30 31  1  0  0  0
 31 32  1  0  0  0
 32 33  1  0  0  0
 33 34  1  0  0  0
 32 35  1  0  0  0
 35 36  1  0  0  0
 35 37  1  0  0  0
  4  5  1  0  0  0
  5  6  2  0  0  0
  6  7  1  0  0  0
  7  8  2  0  0  0
  8  9  1  0  0  0
  9 10  2  0  0  0
 10 38  1  0  0  0
 38 39  1  0  0  0
 39 40  1  0  0  0
 40 41  1  0  0  0
 41 42  1  0  0  0
 42 43  1  0  0  0
 43 44  1  0  0  0
 44 45  1  0  0  0
 45 46  1  0  0  0
  6 11  1  0  0  0
 11 12  1  0  0  0
 12 13  1  0  0  0
 13 14  1  0  0  0
 14 15  1  0  0  0
 15 18  1  0  0  0
 18 19  1  0  0  0
 19 20  2  0  0  0
 20 21  1  0  0  0
 21 22  2  0  0  0
 22 23  1  0  0  0
 23 24  2  0  0  0
 15 16  1  0  0  0
 16 17  1  0  0  0
 10  1  1  0  0  0
 46 42  1  0  0  0
 17 11  1  0  0  0
  8  3  1  0  0  0
 24 19  1  0  0  0
 34 29  1  0  0  0
 27 28  1  0  0  0
M  END
> <minimizedAffinity>
-7.65191

> <CNNscore>
0.3241039813

> <CNNaffinity>
6.9194259644

> <CNN_VS>
2.2426135540

> <CNNaffinity_variance>
0.0980793834

$$$$
[H]c1c([H])c([H])c(C([H])([H])N2C([H])([H])C([H])([H])N(c3nc(N([H])C4([H])C([H])([H])C([H])([H])N(C([H])(C([H])([H])[H])C([H])([H])[H])C([H])([H])C4([H])[H])c4c([H])c(OC([H])([H])[H])c(OC([H])([H])C([H])([H])C([H])([H])N5C([H])([H])C([H])([H])C([H])([H])C5([H])[H])c([H])c4n3)C([H])([H])C([H])([H])C2([H])[H])c([H])c1[H]


 46 51  0  0  0  0  0  0  0  0999 V2000
   36.7377  -21.4553   38.1906 C   0  0  0  0  0  0  0  0  0  0  0  0
   37.5738  -20.4916   37.6285 C   0  0  0  0  0  0  0  0  0  0  0  0
   37.1505  -19.2590   37.1906 C   0  0  0  0  0  0  0  0  0  0  0  0
   37.9988  -18.3278   36.6360 C   0  0  0  0  0  0  0  0  0  0  0  0
   37.4561  -17.1431   36.2370 N   0  0  0  0  0  0  0  0  0  0  0  0
   36.1529  -16.8564   36.3619 C   0  0  0  0  0  0  0  0  0  0  0  0
   35.3458  -17.7810   36.9061 N   0  0  0  0  0  0  0  0  0  0  0  0
   35.7809  -18.9865   37.3341 C   0  0  0  0  0  0  0  0  0  0  0  0
   34.9364  -19.9075   37.8801 C   0  0  0  0  0  0  0  0  0  0  0  0
   35.4067  -21.1309   38.3051 C   0  0  0  0  0  0  0  0  0  0  0  0
   35.5707  -15.6362   35.9532 N   0  0  0  0  0  0  0  0  0  0  0  0
   36.4297  -14.4744   35.8016 C   0  0  0  0  0  0  0  0  0  0  0  0
   36.5281  -13.7034   37.1002 C   0  0  0  0  0  0  0  0  0  0  0  0
   35.2638  -13.8023   37.9199 C   0  0  0  0  0  0  0  0  0  0  0  0
   34.0722  -13.6784   37.1969 N   0  0  0  0  0  0  0  0  0  0  0  0
   33.4070  -14.8381   36.7478 C   0  0  0  0  0  0  0  0  0  0  0  0
   34.1323  -15.6218   35.7040 C   0  0  0  0  0  0  0  0  0  0  0  0
   33.4796  -12.4241   37.0043 C   0  0  0  0  0  0  0  0  0  0  0  0
   32.1481  -12.2253   37.6332 C   0  0  0  0  0  0  0  0  0  0  0  0
   31.8092  -12.9156   38.7978 C   0  0  0  0  0  0  0  0  0  0  0  0
   30.5884  -12.7590   39.4253 C   0  0  0  0  0  0  0  0  0  0  0  0
   29.6584  -11.9008   38.9060 C   0  0  0  0  0  0  0  0  0  0  0  0
   29.9773  -11.2092   37.7533 C   0  0  0  0  0  0  0  0  0  0  0  0
   31.1826  -11.3650   37.1352 C   0  0  0  0  0  0  0  0  0  0  0  0
   38.6296  -22.7907   38.8767 C   0  0  0  0  0  0  0  0  0  0  0  0
   37.2309  -22.6862   38.6141 O   0  0  0  0  0  0  0  0  0  0  0  0
   39.3639  -18.5929   36.4925 N   0  0  0  0  0  0  0  0  0  0  0  0
   40.0901  -17.9253   36.7817 H   0  0  0  0  0  0  0  0  0  0  0  0
   39.8770  -19.8303   35.9237 C   0  0  0  0  0  0  0  0  0  0  0  0
   40.0451  -19.7555   34.4255 C   0  0  0  0  0  0  0  0  0  0  0  0
   40.2686  -21.1583   33.9020 C   0  0  0  0  0  0  0  0  0  0  0  0
   41.2494  -21.8010   34.7091 N   0  0  0  0  0  0  0  0  0  0  0  0
   42.0349  -20.9580   35.5391 C   0  0  0  0  0  0  0  0  0  0  0  0
   41.1505  -20.2689   36.5507 C   0  0  0  0  0  0  0  0  0  0  0  0
   41.9823  -22.8397   34.0407 C   0  0  0  0  0  0  0  0  0  0  0  0
   41.8147  -22.6348   32.5500 C   0  0  0  0  0  0  0  0  0  0  0  0
   43.4323  -22.8834   34.4295 C   0  0  0  0  0  0  0  0  0  0  0  0
   34.5265  -22.0556   38.8583 O   0  0  0  0  0  0  0  0  0  0  0  0
   33.8529  -22.9881   38.0272 C   0  0  0  0  0  0  0  0  0  0  0  0
   32.3959  -23.0668   38.4018 C   0  0  0  0  0  0  0  0  0  0  0  0
   31.6065  -22.9058   37.1228 C   0  0  0  0  0  0  0  0  0  0  0  0
   30.6800  -21.8255   37.1372 N   0  0  0  0  0  0  0  0  0  0  0  0
   29.3206  -22.2054   37.3650 C   0  0  0  0  0  0  0  0  0  0  0  0
   28.5270  -21.0365   36.8690 C   0  0  0  0  0  0  0  0  0  0  0  0
   29.3228  -20.5905   35.6469 C   0  0  0  0  0  0  0  0  0  0  0  0
   30.7549  -20.9351   36.0226 C   0  0  0  0  0  0  0  0  0  0  0  0
 25 26  1  0  0  0
 26  1  1  0  0  0
  1  2  2  0  0  0
  2  3  1  0  0  0
  3  4  2  0  0  0
  4 27  1  0  0  0
 27 29  1  0  0  0
 29 30  1  0  0  0
 30 31  1  0  0  0
 31 32  1  0  0  0
 32 33  1  0  0  0
 33 34  1  0  0  0
 32 35  1  0  0  0
 35 36  1  0  0  0
 35 37  1  0  0  0
  4  5  1  0  0  0
  5  6  2  0  0  0
  6  7  1  0  0  0
  7  8  2  0  0  0
  8  9  1  0  0  0
  9 10  2  0  0  0
 10 38  1  0  0  0
 38 39  1  0  0  0
 39 40  1  0  0  0
 40 41  1  0  0  0
 41 42  1  0  0  0
 42 43  1  0  0  0
 43 44  1  0  0  0
 44 45  1  0  0  0
 45 46  1  0  0  0
  6 11  1  0  0  0
 11 12  1  0  0  0
 12 13  1  0  0  0
 13 14  1  0  0  0
 14 15  1  0  0  0
 15 18  1  0  0  0
 18 19  1  0  0  0
 19 20  2  0  0  0
 20 21  1  0  0  0
 21 22  2  0  0  0
 22 23  1  0  0  0
 23 24  2  0  0  0
 15 16  1  0  0  0
 16 17  1  0  0  0
 10  1  1  0  0  0
 46 42  1  0  0  0
 17 11  1  0  0  0
  8  3  1  0  0  0
 24 19  1  0  0  0
 34 29  1  0  0  0
 27 28  1  0  0  0
M  END
> <minimizedAffinity>
-6.71586

> <CNNscore>
0.1371576488

> <CNNaffinity>
6.4969062805

> <CNN_VS>
0.8911004066

> <CNNaffinity_variance>
0.1671389043

$$$$
[H]c1c([H])c([H])c(C([H])([H])N2C([H])([H])C([H])([H])N(c3nc(N([H])C4([H])C([H])([H])C([H])([H])N(C([H])(C([H])([H])[H])C([H])([H])[H])C([H])([H])C4([H])[H])c4c([H])c(OC([H])([H])[H])c(OC([H])([H])C([H])([H])C([H])([H])N5C([H])([H])C([H])([H])C([H])([H])C5([H])[H])c([H])c4n3)C([H])([H])C([H])([H])C2([H])[H])c([H])c1[H]


 46 51  0  0  0  0  0  0  0  0999 V2000
   36.0354  -22.1196   37.5043 C   0  0  0  0  0  0  0  0  0  0  0  0
   36.9693  -21.2566   36.9326 C   0  0  0  0  0  0  0  0  0  0  0  0
   36.7165  -19.9438   36.6122 C   0  0  0  0  0  0  0  0  0  0  0  0
   37.6578  -19.1152   36.0448 C   0  0  0  0  0  0  0  0  0  0  0  0
   37.2828  -17.8340   35.7707 N   0  0  0  0  0  0  0  0  0  0  0  0
   36.0559  -17.3599   36.0277 C   0  0  0  0  0  0  0  0  0  0  0  0
   35.1555  -18.1875   36.5815 N   0  0  0  0  0  0  0  0  0  0  0  0
   35.4234  -19.4747   36.8927 C   0  0  0  0  0  0  0  0  0  0  0  0
   34.4869  -20.2931   37.4519 C   0  0  0  0  0  0  0  0  0  0  0  0
   34.7865  -21.6032   37.7559 C   0  0  0  0  0  0  0  0  0  0  0  0
   35.6470  -16.0368   35.7496 N   0  0  0  0  0  0  0  0  0  0  0  0
   36.6475  -14.9836   35.7672 C   0  0  0  0  0  0  0  0  0  0  0  0
   36.7769  -14.3859   37.1516 C   0  0  0  0  0  0  0  0  0  0  0  0
   35.4723  -14.4176   37.9112 C   0  0  0  0  0  0  0  0  0  0  0  0
   34.3407  -14.0613   37.1693 N   0  0  0  0  0  0  0  0  0  0  0  0
   33.5612  -15.0679   36.5623 C   0  0  0  0  0  0  0  0  0  0  0  0
   34.2347  -15.8118   35.4565 C   0  0  0  0  0  0  0  0  0  0  0  0
   33.9152  -12.7282   37.1094 C   0  0  0  0  0  0  0  0  0  0  0  0
   32.5689  -12.4445   37.6707 C   0  0  0  0  0  0  0  0  0  0  0  0
   31.6750  -11.6270   36.9775 C   0  0  0  0  0  0  0  0  0  0  0  0
   30.4098  -11.3403   37.4523 C   0  0  0  0  0  0  0  0  0  0  0  0
   29.9923  -11.8648   38.6447 C   0  0  0  0  0  0  0  0  0  0  0  0
   30.8647  -12.6763   39.3442 C   0  0  0  0  0  0  0  0  0  0  0  0
   32.1131  -12.9582   38.8743 C   0  0  0  0  0  0  0  0  0  0  0  0
   36.2573  -24.4059   36.7582 C   0  0  0  0  0  0  0  0  0  0  0  0
   36.3562  -23.4406   37.8044 O   0  0  0  0  0  0  0  0  0  0  0  0
   38.9475  -19.5763   35.7651 N   0  0  0  0  0  0  0  0  0  0  0  0
   39.1595  -20.5716   35.6203 H   0  0  0  0  0  0  0  0  0  0  0  0
   40.0997  -18.6941   35.6549 C   0  0  0  0  0  0  0  0  0  0  0  0
   41.1376  -18.9580   36.7187 C   0  0  0  0  0  0  0  0  0  0  0  0
   42.1207  -17.8066   36.7192 C   0  0  0  0  0  0  0  0  0  0  0  0
   42.5122  -17.5339   35.3780 N   0  0  0  0  0  0  0  0  0  0  0  0
   42.2277  -18.5426   34.4199 C   0  0  0  0  0  0  0  0  0  0  0  0
   40.7342  -18.7387   34.3123 C   0  0  0  0  0  0  0  0  0  0  0  0
   43.8081  -16.9286   35.2479 C   0  0  0  0  0  0  0  0  0  0  0  0
   44.5457  -17.1355   36.5539 C   0  0  0  0  0  0  0  0  0  0  0  0
   44.5938  -17.4597   34.0833 C   0  0  0  0  0  0  0  0  0  0  0  0
   33.8148  -22.4202   38.3251 O   0  0  0  0  0  0  0  0  0  0  0  0
   32.5434  -22.5557   37.7092 C   0  0  0  0  0  0  0  0  0  0  0  0
   32.6568  -23.3709   36.4474 C   0  0  0  0  0  0  0  0  0  0  0  0
   31.7202  -22.7469   35.4383 C   0  0  0  0  0  0  0  0  0  0  0  0
   31.7842  -21.3263   35.3784 N   0  0  0  0  0  0  0  0  0  0  0  0
   30.5143  -20.6693   35.3737 C   0  0  0  0  0  0  0  0  0  0  0  0
   30.8120  -19.3039   34.8359 C   0  0  0  0  0  0  0  0  0  0  0  0
   31.8732  -19.5886   33.7783 C   0  0  0  0  0  0  0  0  0  0  0  0
   32.6119  -20.7902   34.3449 C   0  0  0  0  0  0  0  0  0  0  0  0
 25 26  1  0  0  0
 26  1  1  0  0  0
  1  2  2  0  0  0
  2  3  1  0  0  0
  3  4  2  0  0  0
  4 27  1  0  0  0
 27 29  1  0  0  0
 29 30  1  0  0  0
 30 31  1  0  0  0
 31 32  1  0  0  0
 32 33  1  0  0  0
 33 34  1  0  0  0
 32 35  1  0  0  0
 35 36  1  0  0  0
 35 37  1  0  0  0
  4  5  1  0  0  0
  5  6  2  0  0  0
  6  7  1  0  0  0
  7  8  2  0  0  0
  8  9  1  0  0  0
  9 10  2  0  0  0
 10 38  1  0  0  0
 38 39  1  0  0  0
 39 40  1  0  0  0
 40 41  1  0  0  0
 41 42  1  0  0  0
 42 43  1  0  0  0
 43 44  1  0  0  0
 44 45  1  0  0  0
 45 46  1  0  0  0
  6 11  1  0  0  0
 11 12  1  0  0  0
 12 13  1  0  0  0
 13 14  1  0  0  0
 14 15  1  0  0  0
 15 18  1  0  0  0
 18 19  1  0  0  0
 19 20  2  0  0  0
 20 21  1  0  0  0
 21 22  2  0  0  0
 22 23  1  0  0  0
 23 24  2  0  0  0
 15 16  1  0  0  0
 16 17  1  0  0  0
 10  1  1  0  0  0
 46 42  1  0  0  0
 17 11  1  0  0  0
  8  3  1  0  0  0
 24 19  1  0  0  0
 34 29  1  0  0  0
 27 28  1  0  0  0
M  END
> <minimizedAffinity>
-7.09623

> <CNNscore>
0.0990767777

> <CNNaffinity>
6.6506333351

> <CNN_VS>
0.6589233279

> <CNNaffinity_variance>
0.2748198211

$$$$
[H]c1c(-c2nc3c([H])c(OC([H])([H])C([H])([H])C([H])([H])N4C([H])([H])C([H])([H])C([H])([H])C4([H])[H])c(OC([H])([H])[H])c([H])c3c(N([H])C3([H])C([H])([H])C([H])([H])N(C([H])([H])[H])C([H])([H])C3([H])[H])c2[H])oc(C([H])([H])[H])c1[H]


 36 40  0  0  0  0  0  0  0  0999 V2000
   36.0509  -13.8173   36.6844 C   0  0  0  0  0  0  0  0  0  0  0  0
   36.5421  -15.0979   36.4034 C   0  0  0  0  0  0  0  0  0  0  0  0
   35.6820  -16.1248   36.0942 C   0  0  0  0  0  0  0  0  0  0  0  0
   36.1145  -17.4008   35.8100 C   0  0  0  0  0  0  0  0  0  0  0  0
   35.1450  -18.3527   35.5114 C   0  0  0  0  0  0  0  0  0  0  0  0
   33.7914  -18.0464   35.4956 C   0  0  0  0  0  0  0  0  0  0  0  0
   33.4176  -16.7906   35.7789 N   0  0  0  0  0  0  0  0  0  0  0  0
   34.3115  -15.8191   36.0775 C   0  0  0  0  0  0  0  0  0  0  0  0
   33.8547  -14.5490   36.3580 C   0  0  0  0  0  0  0  0  0  0  0  0
   34.7090  -13.5177   36.6680 C   0  0  0  0  0  0  0  0  0  0  0  0
   32.7844  -19.0581   35.1808 C   0  0  0  0  0  0  0  0  0  0  0  0
   32.9357  -20.0930   34.2830 C   0  0  0  0  0  0  0  0  0  0  0  0
   31.7723  -20.8324   34.2613 C   0  0  0  0  0  0  0  0  0  0  0  0
   30.9435  -20.2011   35.1678 C   0  0  0  0  0  0  0  0  0  0  0  0
   29.5600  -20.6825   35.4589 C   0  0  0  0  0  0  0  0  0  0  0  0
   31.5808  -19.1723   35.6763 O   0  0  0  0  0  0  0  0  0  0  0  0
   38.2825  -13.1436   37.4463 C   0  0  0  0  0  0  0  0  0  0  0  0
   36.9941  -12.8393   36.9869 O   0  0  0  0  0  0  0  0  0  0  0  0
   37.4763  -17.7245   35.8405 N   0  0  0  0  0  0  0  0  0  0  0  0
   38.1437  -17.1108   36.3532 H   0  0  0  0  0  0  0  0  0  0  0  0
   38.0047  -18.9303   35.1612 C   0  0  0  0  0  0  0  0  0  0  0  0
   38.4621  -18.5555   33.7932 C   0  0  0  0  0  0  0  0  0  0  0  0
   39.9354  -18.7831   33.5592 C   0  0  0  0  0  0  0  0  0  0  0  0
   40.1892  -20.1504   34.0414 N   0  0  0  0  0  0  0  0  0  0  0  0
   41.3147  -20.7627   33.4101 C   0  0  0  0  0  0  0  0  0  0  0  0
   40.2681  -20.0384   35.4637 C   0  0  0  0  0  0  0  0  0  0  0  0
   38.9908  -19.5632   36.0472 C   0  0  0  0  0  0  0  0  0  0  0  0
   34.2500  -12.2364   36.9516 O   0  0  0  0  0  0  0  0  0  0  0  0
   33.4808  -11.9364   38.0971 C   0  0  0  0  0  0  0  0  0  0  0  0
   32.0870  -11.5778   37.6034 C   0  0  0  0  0  0  0  0  0  0  0  0
   31.0271  -12.3403   38.3293 C   0  0  0  0  0  0  0  0  0  0  0  0
   29.6929  -12.1004   37.8790 N   0  0  0  0  0  0  0  0  0  0  0  0
   28.7698  -12.4590   38.9252 C   0  0  0  0  0  0  0  0  0  0  0  0
   28.7760  -11.2455   39.8197 C   0  0  0  0  0  0  0  0  0  0  0  0
   28.8477  -10.1063   38.8390 C   0  0  0  0  0  0  0  0  0  0  0  0
   29.4678  -10.7169   37.6080 C   0  0  0  0  0  0  0  0  0  0  0  0
 17 18  1  0  0  0
 18  1  1  0  0  0
  1  2  2  0  0  0
  2  3  1  0  0  0
  3  4  2  0  0  0
  4 19  1  0  0  0
 19 21  1  0  0  0
 21 22  1  0  0  0
 22 23  1  0  0  0
 23 24  1  0  0  0
 24 25  1  0  0  0
 24 26  1  0  0  0
 26 27  1  0  0  0
  4  5  1  0  0  0
  5  6  2  0  0  0
  6  7  1  0  0  0
  7  8  2  0  0  0
  8  9  1  0  0  0
  9 10  2  0  0  0
 10 28  1  0  0  0
 28 29  1  0  0  0
 29 30  1  0  0  0
 30 31  1  0  0  0
 31 32  1  0  0  0
 32 33  1  0  0  0
 33 34  1  0  0  0
 34 35  1  0  0  0
 35 36  1  0  0  0
  6 11  1  0  0  0
 11 12  2  0  0  0
 12 13  1  0  0  0
 13 14  2  0  0  0
 14 15  1  0  0  0
 14 16  1  0  0  0
 10  1  1  0  0  0
 36 32  1  0  0  0
 16 11  1  0  0  0
  8  3  1  0  0  0
 27 21  1  0  0  0
 19 20  1  0  0  0
M  END
> <minimizedAffinity>
-8.73537

> <CNNscore>
0.7885220647

> <CNNaffinity>
7.3274497986

> <CNN_VS>
5.7778558731

> <CNNaffinity_variance>
0.0343738571

$$$$
[H]c1c(-c2nc3c([H])c(OC([H])([H])C([H])([H])C([H])([H])N4C([H])([H])C([H])([H])C([H])([H])C4([H])[H])c(OC([H])([H])[H])c([H])c3c(N([H])C3([H])C([H])([H])C([H])([H])N(C([H])([H])[H])C([H])([H])C3([H])[H])c2[H])oc(C([H])([H])[H])c1[H]


 36 40  0  0  0  0  0  0  0  0999 V2000
   36.0974  -14.1766   36.9842 C   0  0  0  0  0  0  0  0  0  0  0  0
   36.5708  -15.4942   36.9702 C   0  0  0  0  0  0  0  0  0  0  0  0
   35.7635  -16.5231   36.5466 C   0  0  0  0  0  0  0  0  0  0  0  0
   36.1815  -17.8347   36.5135 C   0  0  0  0  0  0  0  0  0  0  0  0
   35.2703  -18.7848   36.0637 C   0  0  0  0  0  0  0  0  0  0  0  0
   33.9871  -18.4426   35.6603 C   0  0  0  0  0  0  0  0  0  0  0  0
   33.6248  -17.1528   35.7100 N   0  0  0  0  0  0  0  0  0  0  0  0
   34.4643  -16.1811   36.1378 C   0  0  0  0  0  0  0  0  0  0  0  0
   34.0236  -14.8751   36.1616 C   0  0  0  0  0  0  0  0  0  0  0  0
   34.8253  -13.8415   36.5840 C   0  0  0  0  0  0  0  0  0  0  0  0
   33.0406  -19.4527   35.1909 C   0  0  0  0  0  0  0  0  0  0  0  0
   31.8131  -19.2009   34.6165 C   0  0  0  0  0  0  0  0  0  0  0  0
   31.2151  -20.4041   34.3076 C   0  0  0  0  0  0  0  0  0  0  0  0
   32.1252  -21.3587   34.7168 C   0  0  0  0  0  0  0  0  0  0  0  0
   31.8733  -22.8230   34.5655 C   0  0  0  0  0  0  0  0  0  0  0  0
   33.1726  -20.7521   35.2250 O   0  0  0  0  0  0  0  0  0  0  0  0
   38.3666  -13.4097   37.5102 C   0  0  0  0  0  0  0  0  0  0  0  0
   36.9837  -13.1994   37.4282 O   0  0  0  0  0  0  0  0  0  0  0  0
   37.4677  -18.1928   36.9349 N   0  0  0  0  0  0  0  0  0  0  0  0
   37.9935  -17.5691   37.5823 H   0  0  0  0  0  0  0  0  0  0  0  0
   38.1114  -19.4495   36.4865 C   0  0  0  0  0  0  0  0  0  0  0  0
   39.3747  -19.1183   35.7686 C   0  0  0  0  0  0  0  0  0  0  0  0
   40.6129  -19.6815   36.4219 C   0  0  0  0  0  0  0  0  0  0  0  0
   40.2952  -21.0950   36.6816 N   0  0  0  0  0  0  0  0  0  0  0  0
   41.4568  -21.9239   36.7432 C   0  0  0  0  0  0  0  0  0  0  0  0
   39.4829  -21.0874   37.8572 C   0  0  0  0  0  0  0  0  0  0  0  0
   38.2140  -20.3519   37.6411 C   0  0  0  0  0  0  0  0  0  0  0  0
   34.3823  -12.5239   36.6089 O   0  0  0  0  0  0  0  0  0  0  0  0
   33.4467  -12.0501   37.5545 C   0  0  0  0  0  0  0  0  0  0  0  0
   32.0727  -12.4734   37.0566 C   0  0  0  0  0  0  0  0  0  0  0  0
   30.9764  -11.8826   37.8817 C   0  0  0  0  0  0  0  0  0  0  0  0
   30.1673  -10.9157   37.2102 N   0  0  0  0  0  0  0  0  0  0  0  0
   28.8077  -11.0356   37.6712 C   0  0  0  0  0  0  0  0  0  0  0  0
   28.8131  -10.2582   38.9629 C   0  0  0  0  0  0  0  0  0  0  0  0
   29.7067   -9.0893   38.6470 C   0  0  0  0  0  0  0  0  0  0  0  0
   30.5742   -9.5820   37.5169 C   0  0  0  0  0  0  0  0  0  0  0  0
 17 18  1  0  0  0
 18  1  1  0  0  0
  1  2  2  0  0  0
  2  3  1  0  0  0
  3  4  2  0  0  0
  4 19  1  0  0  0
 19 21  1  0  0  0
 21 22  1  0  0  0
 22 23  1  0  0  0
 23 24  1  0  0  0
 24 25  1  0  0  0
 24 26  1  0  0  0
 26 27  1  0  0  0
  4  5  1  0  0  0
  5  6  2  0  0  0
  6  7  1  0  0  0
  7  8  2  0  0  0
  8  9  1  0  0  0
  9 10  2  0  0  0
 10 28  1  0  0  0
 28 29  1  0  0  0
 29 30  1  0  0  0
 30 31  1  0  0  0
 31 32  1  0  0  0
 32 33  1  0  0  0
 33 34  1  0  0  0
 34 35  1  0  0  0
 35 36  1  0  0  0
  6 11  1  0  0  0
 11 12  2  0  0  0
 12 13  1  0  0  0
 13 14  2  0  0  0
 14 15  1  0  0  0
 14 16  1  0  0  0
 10  1  1  0  0  0
 36 32  1  0  0  0
 16 11  1  0  0  0
  8  3  1  0  0  0
 27 21  1  0  0  0
 19 20  1  0  0  0
M  END
> <minimizedAffinity>
-8.01663

> <CNNscore>
0.6128103733

> <CNNaffinity>
7.0121192932

> <CNN_VS>
4.2970995903

> <CNNaffinity_variance>
0.0624095313

$$$$
[H]c1c(-c2nc3c([H])c(OC([H])([H])C([H])([H])C([H])([H])N4C([H])([H])C([H])([H])C([H])([H])C4([H])[H])c(OC([H])([H])[H])c([H])c3c(N([H])C3([H])C([H])([H])C([H])([H])N(C([H])([H])[H])C([H])([H])C3([H])[H])c2[H])oc(C([H])([H])[H])c1[H]


 36 40  0  0  0  0  0  0  0  0999 V2000
   32.3081  -20.7122   34.4486 C   0  0  0  0  0  0  0  0  0  0  0  0
   33.6566  -20.3411   34.3869 C   0  0  0  0  0  0  0  0  0  0  0  0
   34.0592  -19.0955   34.8070 C   0  0  0  0  0  0  0  0  0  0  0  0
   35.3723  -18.6827   34.7673 C   0  0  0  0  0  0  0  0  0  0  0  0
   35.6525  -17.3981   35.2215 C   0  0  0  0  0  0  0  0  0  0  0  0
   34.6610  -16.5524   35.6993 C   0  0  0  0  0  0  0  0  0  0  0  0
   33.3967  -16.9979   35.7188 N   0  0  0  0  0  0  0  0  0  0  0  0
   33.0590  -18.2368   35.2908 C   0  0  0  0  0  0  0  0  0  0  0  0
   31.7380  -18.6279   35.3407 C   0  0  0  0  0  0  0  0  0  0  0  0
   31.3285  -19.8716   34.9223 C   0  0  0  0  0  0  0  0  0  0  0  0
   34.9710  -15.2046   36.1724 C   0  0  0  0  0  0  0  0  0  0  0  0
   36.2347  -14.6955   36.3819 C   0  0  0  0  0  0  0  0  0  0  0  0
   36.1189  -13.3957   36.8268 C   0  0  0  0  0  0  0  0  0  0  0  0
   34.7582  -13.1642   36.8702 C   0  0  0  0  0  0  0  0  0  0  0  0
   34.1812  -11.8572   37.3053 C   0  0  0  0  0  0  0  0  0  0  0  0
   34.1330  -14.2502   36.4791 O   0  0  0  0  0  0  0  0  0  0  0  0
   31.9290  -23.1004   34.8577 C   0  0  0  0  0  0  0  0  0  0  0  0
   31.9918  -21.9923   34.0023 O   0  0  0  0  0  0  0  0  0  0  0  0
   36.3775  -19.5213   34.2708 N   0  0  0  0  0  0  0  0  0  0  0  0
   36.1377  -20.2691   33.5866 H   0  0  0  0  0  0  0  0  0  0  0  0
   37.7907  -19.3743   34.6901 C   0  0  0  0  0  0  0  0  0  0  0  0
   38.2254  -20.6231   35.3775 C   0  0  0  0  0  0  0  0  0  0  0  0
   39.3621  -21.3355   34.6865 C   0  0  0  0  0  0  0  0  0  0  0  0
   40.3614  -20.2878   34.4218 N   0  0  0  0  0  0  0  0  0  0  0  0
   41.6910  -20.7999   34.3218 C   0  0  0  0  0  0  0  0  0  0  0  0
   39.8818  -19.5942   33.2683 C   0  0  0  0  0  0  0  0  0  0  0  0
   38.5746  -18.9437   33.5247 C   0  0  0  0  0  0  0  0  0  0  0  0
   29.9967  -20.2675   34.9716 O   0  0  0  0  0  0  0  0  0  0  0  0
   29.3698  -20.6936   36.1630 C   0  0  0  0  0  0  0  0  0  0  0  0
   28.6078  -21.9657   35.8225 C   0  0  0  0  0  0  0  0  0  0  0  0
   28.6102  -22.9359   36.9585 C   0  0  0  0  0  0  0  0  0  0  0  0
   29.1777  -22.4438   38.1735 N   0  0  0  0  0  0  0  0  0  0  0  0
   28.1704  -22.4545   39.2034 C   0  0  0  0  0  0  0  0  0  0  0  0
   28.1809  -23.8851   39.6792 C   0  0  0  0  0  0  0  0  0  0  0  0
   29.6435  -24.2379   39.6488 C   0  0  0  0  0  0  0  0  0  0  0  0
   30.2330  -23.2836   38.6416 C   0  0  0  0  0  0  0  0  0  0  0  0
 17 18  1  0  0  0
 18  1  1  0  0  0
  1  2  2  0  0  0
  2  3  1  0  0  0
  3  4  2  0  0  0
  4 19  1  0  0  0
 19 21  1  0  0  0
 21 22  1  0  0  0
 22 23  1  0  0  0
 23 24  1  0  0  0
 24 25  1  0  0  0
 24 26  1  0  0  0
 26 27  1  0  0  0
  4  5  1  0  0  0
  5  6  2  0  0  0
  6  7  1  0  0  0
  7  8  2  0  0  0
  8  9  1  0  0  0
  9 10  2  0  0  0
 10 28  1  0  0  0
 28 29  1  0  0  0
 29 30  1  0  0  0
 30 31  1  0  0  0
 31 32  1  0  0  0
 32 33  1  0  0  0
 33 34  1  0  0  0
 34 35  1  0  0  0
 35 36  1  0  0  0
  6 11  1  0  0  0
 11 12  2  0  0  0
 12 13  1  0  0  0
 13 14  2  0  0  0
 14 15  1  0  0  0
 14 16  1  0  0  0
 10  1  1  0  0  0
 36 32  1  0  0  0
 16 11  1  0  0  0
  8  3  1  0  0  0
 27 21  1  0  0  0
 19 20  1  0  0  0
M  END
> <minimizedAffinity>
-6.89487

> <CNNscore>
0.5579476357

> <CNNaffinity>
6.1893873215

> <CNN_VS>
3.4533541203

> <CNNaffinity_variance>
0.3336272538

$$$$
[H]c1c(-c2nc3c([H])c(OC([H])([H])C([H])([H])C([H])([H])N4C([H])([H])C([H])([H])C([H])([H])C4([H])[H])c(OC([H])([H])[H])c([H])c3c(N([H])C3([H])C([H])([H])C([H])([H])N(C([H])([H])[H])C([H])([H])C3([H])[H])c2[H])oc(C([H])([H])[H])c1[H]


 36 40  0  0  0  0  0  0  0  0999 V2000
   36.1679  -15.3769   36.4709 C   0  0  0  0  0  0  0  0  0  0  0  0
   36.6609  -16.6731   36.6632 C   0  0  0  0  0  0  0  0  0  0  0  0
   35.8522  -17.7663   36.4608 C   0  0  0  0  0  0  0  0  0  0  0  0
   36.2889  -19.0604   36.6359 C   0  0  0  0  0  0  0  0  0  0  0  0
   35.3741  -20.0813   36.3989 C   0  0  0  0  0  0  0  0  0  0  0  0
   34.0694  -19.8243   36.0011 C   0  0  0  0  0  0  0  0  0  0  0  0
   33.6894  -18.5484   35.8437 N   0  0  0  0  0  0  0  0  0  0  0  0
   34.5313  -17.5106   36.0586 C   0  0  0  0  0  0  0  0  0  0  0  0
   34.0716  -16.2238   35.8764 C   0  0  0  0  0  0  0  0  0  0  0  0
   34.8746  -15.1263   36.0770 C   0  0  0  0  0  0  0  0  0  0  0  0
   33.1193  -20.9080   35.7568 C   0  0  0  0  0  0  0  0  0  0  0  0
   31.8513  -20.7651   35.2354 C   0  0  0  0  0  0  0  0  0  0  0  0
   31.2641  -22.0098   35.1550 C   0  0  0  0  0  0  0  0  0  0  0  0
   32.2219  -22.8770   35.6424 C   0  0  0  0  0  0  0  0  0  0  0  0
   31.9966  -24.3506   35.7340 C   0  0  0  0  0  0  0  0  0  0  0  0
   33.2849  -22.1847   35.9798 O   0  0  0  0  0  0  0  0  0  0  0  0
   37.5898  -14.0488   37.9638 C   0  0  0  0  0  0  0  0  0  0  0  0
   37.0572  -14.3305   36.6987 O   0  0  0  0  0  0  0  0  0  0  0  0
   37.5976  -19.3299   37.0539 N   0  0  0  0  0  0  0  0  0  0  0  0
   37.8787  -19.1326   38.0372 H   0  0  0  0  0  0  0  0  0  0  0  0
   38.6075  -19.8982   36.1311 C   0  0  0  0  0  0  0  0  0  0  0  0
   38.1929  -19.6200   34.7269 C   0  0  0  0  0  0  0  0  0  0  0  0
   39.1723  -18.7660   33.9597 C   0  0  0  0  0  0  0  0  0  0  0  0
   40.4856  -19.3850   34.2012 N   0  0  0  0  0  0  0  0  0  0  0  0
   41.4249  -19.1216   33.1578 C   0  0  0  0  0  0  0  0  0  0  0  0
   40.8746  -18.9444   35.5036 C   0  0  0  0  0  0  0  0  0  0  0  0
   39.9324  -19.4178   36.5458 C   0  0  0  0  0  0  0  0  0  0  0  0
   34.4125  -13.8279   35.8941 O   0  0  0  0  0  0  0  0  0  0  0  0
   33.0389  -13.5011   35.8762 C   0  0  0  0  0  0  0  0  0  0  0  0
   32.7498  -12.7659   37.1764 C   0  0  0  0  0  0  0  0  0  0  0  0
   31.9263  -11.5401   36.9505 C   0  0  0  0  0  0  0  0  0  0  0  0
   32.0988  -10.5074   37.9222 N   0  0  0  0  0  0  0  0  0  0  0  0
   33.4995  -10.1875   38.0276 C   0  0  0  0  0  0  0  0  0  0  0  0
   33.7261   -9.2507   36.8684 C   0  0  0  0  0  0  0  0  0  0  0  0
   32.4674   -8.4259   36.8527 C   0  0  0  0  0  0  0  0  0  0  0  0
   31.4442   -9.3002   37.5319 C   0  0  0  0  0  0  0  0  0  0  0  0
 17 18  1  0  0  0
 18  1  1  0  0  0
  1  2  2  0  0  0
  2  3  1  0  0  0
  3  4  2  0  0  0
  4 19  1  0  0  0
 19 21  1  0  0  0
 21 22  1  0  0  0
 22 23  1  0  0  0
 23 24  1  0  0  0
 24 25  1  0  0  0
 24 26  1  0  0  0
 26 27  1  0  0  0
  4  5  1  0  0  0
  5  6  2  0  0  0
  6  7  1  0  0  0
  7  8  2  0  0  0
  8  9  1  0  0  0
  9 10  2  0  0  0
 10 28  1  0  0  0
 28 29  1  0  0  0
 29 30  1  0  0  0
 30 31  1  0  0  0
 31 32  1  0  0  0
 32 33  1  0  0  0
 33 34  1  0  0  0
 34 35  1  0  0  0
 35 36  1  0  0  0
  6 11  1  0  0  0
 11 12  2  0  0  0
 12 13  1  0  0  0
 13 14  2  0  0  0
 14 15  1  0  0  0
 14 16  1  0  0  0
 10  1  1  0  0  0
 36 32  1  0  0  0
 16 11  1  0  0  0
  8  3  1  0  0  0
 27 21  1  0  0  0
 19 20  1  0  0  0
M  END
> <minimizedAffinity>
-7.05281

> <CNNscore>
0.3540405631

> <CNNaffinity>
6.4139609337

> <CNN_VS>
2.2708022594

> <CNNaffinity_variance>
0.0346836857

$$$$
[H]c1c(-c2nc3c([H])c(OC([H])([H])C([H])([H])C([H])([H])N4C([H])([H])C([H])([H])C([H])([H])C4([H])[H])c(OC([H])([H])[H])c([H])c3c(N([H])C3([H])C([H])([H])C([H])([H])N(C([H])([H])[H])C([H])([H])C3([H])[H])c2[H])oc(C([H])([H])[H])c1[H]


 36 40  0  0  0  0  0  0  0  0999 V2000
   36.2168  -22.4467   37.3971 C   0  0  0  0  0  0  0  0  0  0  0  0
   37.2441  -21.5769   37.0120 C   0  0  0  0  0  0  0  0  0  0  0  0
   37.0394  -20.2176   36.9931 C   0  0  0  0  0  0  0  0  0  0  0  0
   38.0165  -19.3207   36.6229 C   0  0  0  0  0  0  0  0  0  0  0  0
   37.6857  -17.9697   36.6456 C   0  0  0  0  0  0  0  0  0  0  0  0
   36.4264  -17.5252   37.0238 C   0  0  0  0  0  0  0  0  0  0  0  0
   35.5073  -18.4354   37.3761 N   0  0  0  0  0  0  0  0  0  0  0  0
   35.7665  -19.7639   37.3748 C   0  0  0  0  0  0  0  0  0  0  0  0
   34.7726  -20.6425   37.7499 C   0  0  0  0  0  0  0  0  0  0  0  0
   34.9703  -22.0027   37.7709 C   0  0  0  0  0  0  0  0  0  0  0  0
   36.0937  -16.1020   37.0417 C   0  0  0  0  0  0  0  0  0  0  0  0
   36.9354  -15.0830   37.4331 C   0  0  0  0  0  0  0  0  0  0  0  0
   36.2645  -13.8848   37.3111 C   0  0  0  0  0  0  0  0  0  0  0  0
   35.0143  -14.2339   36.8399 C   0  0  0  0  0  0  0  0  0  0  0  0
   33.9511  -13.2224   36.5627 C   0  0  0  0  0  0  0  0  0  0  0  0
   34.9657  -15.5383   36.6997 O   0  0  0  0  0  0  0  0  0  0  0  0
   36.9041  -24.4894   36.2270 C   0  0  0  0  0  0  0  0  0  0  0  0
   36.5135  -23.8067   37.3866 O   0  0  0  0  0  0  0  0  0  0  0  0
   39.2843  -19.7595   36.2227 N   0  0  0  0  0  0  0  0  0  0  0  0
   39.4140  -20.7392   35.8941 H   0  0  0  0  0  0  0  0  0  0  0  0
   40.4622  -18.8614   36.2483 C   0  0  0  0  0  0  0  0  0  0  0  0
   41.2468  -19.1251   37.4876 C   0  0  0  0  0  0  0  0  0  0  0  0
   42.6517  -19.6108   37.2281 C   0  0  0  0  0  0  0  0  0  0  0  0
   43.1973  -18.6775   36.2293 N   0  0  0  0  0  0  0  0  0  0  0  0
   44.6220  -18.5855   36.2738 C   0  0  0  0  0  0  0  0  0  0  0  0
   42.6478  -19.1010   34.9801 C   0  0  0  0  0  0  0  0  0  0  0  0
   41.1693  -18.9924   34.9674 C   0  0  0  0  0  0  0  0  0  0  0  0
   33.9691  -22.8902   38.1486 O   0  0  0  0  0  0  0  0  0  0  0  0
   32.9968  -23.3742   37.2461 C   0  0  0  0  0  0  0  0  0  0  0  0
   32.0694  -24.2751   38.0481 C   0  0  0  0  0  0  0  0  0  0  0  0
   31.3463  -23.5196   39.1150 C   0  0  0  0  0  0  0  0  0  0  0  0
   31.1985  -24.2144   40.3543 N   0  0  0  0  0  0  0  0  0  0  0  0
   32.5028  -24.5461   40.8681 C   0  0  0  0  0  0  0  0  0  0  0  0
   32.9425  -23.2697   41.5393 C   0  0  0  0  0  0  0  0  0  0  0  0
   31.6715  -22.7671   42.1692 C   0  0  0  0  0  0  0  0  0  0  0  0
   30.5768  -23.3977   41.3467 C   0  0  0  0  0  0  0  0  0  0  0  0
 17 18  1  0  0  0
 18  1  1  0  0  0
  1  2  2  0  0  0
  2  3  1  0  0  0
  3  4  2  0  0  0
  4 19  1  0  0  0
 19 21  1  0  0  0
 21 22  1  0  0  0
 22 23  1  0  0  0
 23 24  1  0  0  0
 24 25  1  0  0  0
 24 26  1  0  0  0
 26 27  1  0  0  0
  4  5  1  0  0  0
  5  6  2  0  0  0
  6  7  1  0  0  0
  7  8  2  0  0  0
  8  9  1  0  0  0
  9 10  2  0  0  0
 10 28  1  0  0  0
 28 29  1  0  0  0
 29 30  1  0  0  0
 30 31  1  0  0  0
 31 32  1  0  0  0
 32 33  1  0  0  0
 33 34  1  0  0  0
 34 35  1  0  0  0
 35 36  1  0  0  0
  6 11  1  0  0  0
 11 12  2  0  0  0
 12 13  1  0  0  0
 13 14  2  0  0  0
 14 15  1  0  0  0
 14 16  1  0  0  0
 10  1  1  0  0  0
 36 32  1  0  0  0
 16 11  1  0  0  0
  8  3  1  0  0  0
 27 21  1  0  0  0
 19 20  1  0  0  0
M  END
> <minimizedAffinity>
-4.99598

> <CNNscore>
0.3224333823

> <CNNaffinity>
5.8202829361

> <CNN_VS>
1.8766535521

> <CNNaffinity_variance>
0.0655310899

$$$$
[H]c1c(-c2nc3c([H])c(OC([H])([H])C([H])([H])C([H])([H])N4C([H])([H])C([H])([H])C([H])([H])C4([H])[H])c(OC([H])([H])[H])c([H])c3c(N([H])C3([H])C([H])([H])C([H])([H])N(C([H])([H])[H])C([H])([H])C3([H])[H])c2[H])oc(C([H])([H])[H])c1[H]


 36 40  0  0  0  0  0  0  0  0999 V2000
   40.2286  -19.5445   36.3712 C   0  0  0  0  0  0  0  0  0  0  0  0
   39.2902  -18.5190   36.5382 C   0  0  0  0  0  0  0  0  0  0  0  0
   37.9697  -18.7194   36.2125 C   0  0  0  0  0  0  0  0  0  0  0  0
   37.0086  -17.7441   36.3584 C   0  0  0  0  0  0  0  0  0  0  0  0
   35.7064  -18.0703   35.9939 C   0  0  0  0  0  0  0  0  0  0  0  0
   35.3708  -19.3237   35.5012 C   0  0  0  0  0  0  0  0  0  0  0  0
   36.3402  -20.2412   35.3764 N   0  0  0  0  0  0  0  0  0  0  0  0
   37.6261  -19.9861   35.7134 C   0  0  0  0  0  0  0  0  0  0  0  0
   38.5705  -20.9784   35.5589 C   0  0  0  0  0  0  0  0  0  0  0  0
   39.8924  -20.7850   35.8824 C   0  0  0  0  0  0  0  0  0  0  0  0
   33.9978  -19.6511   35.1214 C   0  0  0  0  0  0  0  0  0  0  0  0
   33.5503  -19.8816   33.8381 C   0  0  0  0  0  0  0  0  0  0  0  0
   32.2006  -20.1587   33.8843 C   0  0  0  0  0  0  0  0  0  0  0  0
   31.8769  -20.0832   35.2246 C   0  0  0  0  0  0  0  0  0  0  0  0
   30.4911  -20.3191   35.7288 C   0  0  0  0  0  0  0  0  0  0  0  0
   32.9598  -19.7843   35.9037 O   0  0  0  0  0  0  0  0  0  0  0  0
   41.9679  -19.1727   38.0596 C   0  0  0  0  0  0  0  0  0  0  0  0
   41.5424  -19.2527   36.7270 O   0  0  0  0  0  0  0  0  0  0  0  0
   37.3397  -16.4710   36.8378 N   0  0  0  0  0  0  0  0  0  0  0  0
   38.3168  -16.1214   36.7487 H   0  0  0  0  0  0  0  0  0  0  0  0
   36.3302  -15.5920   37.4725 C   0  0  0  0  0  0  0  0  0  0  0  0
   36.9712  -14.2943   37.8278 C   0  0  0  0  0  0  0  0  0  0  0  0
   36.3666  -13.1032   37.1259 C   0  0  0  0  0  0  0  0  0  0  0  0
   34.9140  -13.2503   37.3120 N   0  0  0  0  0  0  0  0  0  0  0  0
   34.2170  -12.0049   37.2544 C   0  0  0  0  0  0  0  0  0  0  0  0
   34.5090  -14.2261   36.3499 C   0  0  0  0  0  0  0  0  0  0  0  0
   35.1507  -15.5392   36.5985 C   0  0  0  0  0  0  0  0  0  0  0  0
   40.8462  -21.7845   35.7270 O   0  0  0  0  0  0  0  0  0  0  0  0
   41.6121  -21.9335   34.5501 C   0  0  0  0  0  0  0  0  0  0  0  0
   41.0809  -23.1693   33.8391 C   0  0  0  0  0  0  0  0  0  0  0  0
   42.1311  -23.8232   33.0017 C   0  0  0  0  0  0  0  0  0  0  0  0
   41.6484  -24.4774   31.8273 N   0  0  0  0  0  0  0  0  0  0  0  0
   42.0089  -23.6979   30.6706 C   0  0  0  0  0  0  0  0  0  0  0  0
   43.4372  -24.1059   30.4129 C   0  0  0  0  0  0  0  0  0  0  0  0
   43.4239  -25.5807   30.7125 C   0  0  0  0  0  0  0  0  0  0  0  0
   42.2553  -25.7572   31.6483 C   0  0  0  0  0  0  0  0  0  0  0  0
 17 18  1  0  0  0
 18  1  1  0  0  0
  1  2  2  0  0  0
  2  3  1  0  0  0
  3  4  2  0  0  0
  4 19  1  0  0  0
 19 21  1  0  0  0
 21 22  1  0  0  0
 22 23  1  0  0  0
 23 24  1  0  0  0
 24 25  1  0  0  0
 24 26  1  0  0  0
 26 27  1  0  0  0
  4  5  1  0  0  0
  5  6  2  0  0  0
  6  7  1  0  0  0
  7  8  2  0  0  0
  8  9  1  0  0  0
  9 10  2  0  0  0
 10 28  1  0  0  0
 28 29  1  0  0  0
 29 30  1  0  0  0
 30 31  1  0  0  0
 31 32  1  0  0  0
 32 33  1  0  0  0
 33 34  1  0  0  0
 34 35  1  0  0  0
 35 36  1  0  0  0
  6 11  1  0  0  0
 11 12  2  0  0  0
 12 13  1  0  0  0
 13 14  2  0  0  0
 14 15  1  0  0  0
 14 16  1  0  0  0
 10  1  1  0  0  0
 36 32  1  0  0  0
 16 11  1  0  0  0
  8  3  1  0  0  0
 27 21  1  0  0  0
 19 20  1  0  0  0
M  END
> <minimizedAffinity>
-6.22205

> <CNNscore>
0.2843962014

> <CNNaffinity>
6.0794706345

> <CNN_VS>
1.7289783955

> <CNNaffinity_variance>
0.0905552432

$$$$
[H]c1c(-c2nc3c([H])c(OC([H])([H])C([H])([H])C([H])([H])N4C([H])([H])C([H])([H])C([H])([H])C4([H])[H])c(OC([H])([H])[H])c([H])c3c(N([H])C3([H])C([H])([H])C([H])([H])N(C([H])([H])[H])C([H])([H])C3([H])[H])c2[H])oc(C([H])([H])[H])c1[H]


 36 40  0  0  0  0  0  0  0  0999 V2000
   36.4383  -22.0835   37.6880 C   0  0  0  0  0  0  0  0  0  0  0  0
   37.2341  -21.2592   36.8832 C   0  0  0  0  0  0  0  0  0  0  0  0
   37.0718  -19.8942   36.9038 C   0  0  0  0  0  0  0  0  0  0  0  0
   37.8286  -19.0409   36.1324 C   0  0  0  0  0  0  0  0  0  0  0  0
   37.5687  -17.6788   36.2432 C   0  0  0  0  0  0  0  0  0  0  0  0
   36.5897  -17.1818   37.0924 C   0  0  0  0  0  0  0  0  0  0  0  0
   35.8779  -18.0508   37.8240 N   0  0  0  0  0  0  0  0  0  0  0  0
   36.0821  -19.3874   37.7614 C   0  0  0  0  0  0  0  0  0  0  0  0
   35.3124  -20.2219   38.5436 C   0  0  0  0  0  0  0  0  0  0  0  0
   35.4692  -21.5874   38.5279 C   0  0  0  0  0  0  0  0  0  0  0  0
   36.3277  -15.7476   37.1971 C   0  0  0  0  0  0  0  0  0  0  0  0
   37.2626  -14.7771   37.4871 C   0  0  0  0  0  0  0  0  0  0  0  0
   36.6358  -13.5492   37.4974 C   0  0  0  0  0  0  0  0  0  0  0  0
   35.3157  -13.8315   37.2067 C   0  0  0  0  0  0  0  0  0  0  0  0
   34.2701  -12.7690   37.1164 C   0  0  0  0  0  0  0  0  0  0  0  0
   35.1884  -15.1274   37.0404 O   0  0  0  0  0  0  0  0  0  0  0  0
   37.5099  -24.0211   36.6338 C   0  0  0  0  0  0  0  0  0  0  0  0
   36.6722  -23.4530   37.6027 O   0  0  0  0  0  0  0  0  0  0  0  0
   38.8064  -19.5330   35.2596 N   0  0  0  0  0  0  0  0  0  0  0  0
   38.5446  -20.2203   34.5221 H   0  0  0  0  0  0  0  0  0  0  0  0
   40.2198  -19.0984   35.3502 C   0  0  0  0  0  0  0  0  0  0  0  0
   40.7209  -19.3611   36.7289 C   0  0  0  0  0  0  0  0  0  0  0  0
   41.8738  -20.3332   36.7837 C   0  0  0  0  0  0  0  0  0  0  0  0
   42.8218  -19.8552   35.7643 N   0  0  0  0  0  0  0  0  0  0  0  0
   44.1701  -20.2421   36.0337 C   0  0  0  0  0  0  0  0  0  0  0  0
   42.2908  -20.3063   34.5168 C   0  0  0  0  0  0  0  0  0  0  0  0
   40.9619  -19.7104   34.2398 C   0  0  0  0  0  0  0  0  0  0  0  0
   34.6936  -22.4304   39.3157 O   0  0  0  0  0  0  0  0  0  0  0  0
   33.4305  -22.0545   39.8229 C   0  0  0  0  0  0  0  0  0  0  0  0
   33.6145  -21.8147   41.3140 C   0  0  0  0  0  0  0  0  0  0  0  0
   34.4758  -22.8607   41.9431 C   0  0  0  0  0  0  0  0  0  0  0  0
   35.4778  -22.3653   42.8324 N   0  0  0  0  0  0  0  0  0  0  0  0
   36.5648  -23.3089   42.8918 C   0  0  0  0  0  0  0  0  0  0  0  0
   37.3732  -22.9796   41.6627 C   0  0  0  0  0  0  0  0  0  0  0  0
   37.2995  -21.4775   41.6054 C   0  0  0  0  0  0  0  0  0  0  0  0
   36.0410  -21.1401   42.3636 C   0  0  0  0  0  0  0  0  0  0  0  0
 17 18  1  0  0  0
 18  1  1  0  0  0
  1  2  2  0  0  0
  2  3  1  0  0  0
  3  4  2  0  0  0
  4 19  1  0  0  0
 19 21  1  0  0  0
 21 22  1  0  0  0
 22 23  1  0  0  0
 23 24  1  0  0  0
 24 25  1  0  0  0
 24 26  1  0  0  0
 26 27  1  0  0  0
  4  5  1  0  0  0
  5  6  2  0  0  0
  6  7  1  0  0  0
  7  8  2  0  0  0
  8  9  1  0  0  0
  9 10  2  0  0  0
 10 28  1  0  0  0
 28 29  1  0  0  0
 29 30  1  0  0  0
 30 31  1  0  0  0
 31 32  1  0  0  0
 32 33  1  0  0  0
 33 34  1  0  0  0
 34 35  1  0  0  0
 35 36  1  0  0  0
  6 11  1  0  0  0
 11 12  2  0  0  0
 12 13  1  0  0  0
 13 14  2  0  0  0
 14 15  1  0  0  0
 14 16  1  0  0  0
 10  1  1  0  0  0
 36 32  1  0  0  0
 16 11  1  0  0  0
  8  3  1  0  0  0
 27 21  1  0  0  0
 19 20  1  0  0  0
M  END
> <minimizedAffinity>
-5.29135

> <CNNscore>
0.2597656548

> <CNNaffinity>
5.7573556900

> <CNN_VS>
1.4955632687

> <CNNaffinity_variance>
0.1898523569

$$$$
[H]c1c(-c2nc3c([H])c(OC([H])([H])C([H])([H])C([H])([H])N4C([H])([H])C([H])([H])C([H])([H])C4([H])[H])c(OC([H])([H])[H])c([H])c3c(N([H])C3([H])C([H])([H])C([H])([H])N(C([H])([H])[H])C([H])([H])C3([H])[H])c2[H])oc(C([H])([H])[H])c1[H]


 36 40  0  0  0  0  0  0  0  0999 V2000
   38.6848  -20.9895   36.1190 C   0  0  0  0  0  0  0  0  0  0  0  0
   37.3251  -20.6698   36.0232 C   0  0  0  0  0  0  0  0  0  0  0  0
   36.8958  -19.3769   36.2077 C   0  0  0  0  0  0  0  0  0  0  0  0
   35.5709  -19.0112   36.1238 C   0  0  0  0  0  0  0  0  0  0  0  0
   35.2637  -17.6702   36.3302 C   0  0  0  0  0  0  0  0  0  0  0  0
   36.2404  -16.7247   36.6103 C   0  0  0  0  0  0  0  0  0  0  0  0
   37.5170  -17.1276   36.6822 N   0  0  0  0  0  0  0  0  0  0  0  0
   37.8809  -18.4173   36.4916 C   0  0  0  0  0  0  0  0  0  0  0  0
   39.2134  -18.7594   36.5801 C   0  0  0  0  0  0  0  0  0  0  0  0
   39.6497  -20.0500   36.3969 C   0  0  0  0  0  0  0  0  0  0  0  0
   35.9017  -15.3192   36.8257 C   0  0  0  0  0  0  0  0  0  0  0  0
   36.7874  -14.2635   36.7951 C   0  0  0  0  0  0  0  0  0  0  0  0
   36.0940  -13.0981   37.0433 C   0  0  0  0  0  0  0  0  0  0  0  0
   34.7857  -13.5038   37.2187 C   0  0  0  0  0  0  0  0  0  0  0  0
   33.6812  -12.5427   37.5133 C   0  0  0  0  0  0  0  0  0  0  0  0
   34.7268  -14.8081   37.0819 O   0  0  0  0  0  0  0  0  0  0  0  0
   38.1813  -23.3855   36.2604 C   0  0  0  0  0  0  0  0  0  0  0  0
   39.0283  -22.3233   35.9172 O   0  0  0  0  0  0  0  0  0  0  0  0
   34.5760  -19.9600   35.8593 N   0  0  0  0  0  0  0  0  0  0  0  0
   34.8014  -20.8028   35.2905 H   0  0  0  0  0  0  0  0  0  0  0  0
   33.1953  -19.8032   36.3729 C   0  0  0  0  0  0  0  0  0  0  0  0
   32.3184  -19.3208   35.2687 C   0  0  0  0  0  0  0  0  0  0  0  0
   31.2017  -20.2726   34.9167 C   0  0  0  0  0  0  0  0  0  0  0  0
   30.5866  -20.6290   36.2055 N   0  0  0  0  0  0  0  0  0  0  0  0
   29.2191  -21.0216   36.0795 C   0  0  0  0  0  0  0  0  0  0  0  0
   31.4563  -21.6071   36.7789 C   0  0  0  0  0  0  0  0  0  0  0  0
   32.8069  -21.0537   37.0389 C   0  0  0  0  0  0  0  0  0  0  0  0
   40.9930  -20.3968   36.4862 O   0  0  0  0  0  0  0  0  0  0  0  0
   41.9167  -20.1494   35.4472 C   0  0  0  0  0  0  0  0  0  0  0  0
   43.2587  -19.8829   36.1127 C   0  0  0  0  0  0  0  0  0  0  0  0
   43.1659  -18.7984   37.1360 C   0  0  0  0  0  0  0  0  0  0  0  0
   43.8713  -19.0516   38.3520 N   0  0  0  0  0  0  0  0  0  0  0  0
   43.2009  -18.3792   39.4355 C   0  0  0  0  0  0  0  0  0  0  0  0
   42.0825  -19.3267   39.7883 C   0  0  0  0  0  0  0  0  0  0  0  0
   42.7288  -20.6778   39.6414 C   0  0  0  0  0  0  0  0  0  0  0  0
   43.8691  -20.4400   38.6845 C   0  0  0  0  0  0  0  0  0  0  0  0
 17 18  1  0  0  0
 18  1  1  0  0  0
  1  2  2  0  0  0
  2  3  1  0  0  0
  3  4  2  0  0  0
  4 19  1  0  0  0
 19 21  1  0  0  0
 21 22  1  0  0  0
 22 23  1  0  0  0
 23 24  1  0  0  0
 24 25  1  0  0  0
 24 26  1  0  0  0
 26 27  1  0  0  0
  4  5  1  0  0  0
  5  6  2  0  0  0
  6  7  1  0  0  0
  7  8  2  0  0  0
  8  9  1  0  0  0
  9 10  2  0  0  0
 10 28  1  0  0  0
 28 29  1  0  0  0
 29 30  1  0  0  0
 30 31  1  0  0  0
 31 32  1  0  0  0
 32 33  1  0  0  0
 33 34  1  0  0  0
 34 35  1  0  0  0
 35 36  1  0  0  0
  6 11  1  0  0  0
 11 12  2  0  0  0
 12 13  1  0  0  0
 13 14  2  0  0  0
 14 15  1  0  0  0
 14 16  1  0  0  0
 10  1  1  0  0  0
 36 32  1  0  0  0
 16 11  1  0  0  0
  8  3  1  0  0  0
 27 21  1  0  0  0
 19 20  1  0  0  0
M  END
> <minimizedAffinity>
-6.48980

> <CNNscore>
0.2565732896

> <CNNaffinity>
5.9758057594

> <CNN_VS>
1.5332320929

> <CNNaffinity_variance>
0.2147887647

$$$$
[H]c1c(-c2nc3c([H])c(OC([H])([H])C([H])([H])C([H])([H])N4C([H])([H])C([H])([H])C([H])([H])C4([H])[H])c(OC([H])([H])[H])c([H])c3c(N([H])C3([H])C([H])([H])C([H])([H])N(C([H])([H])[H])C([H])([H])C3([H])[H])c2[H])oc(C([H])([H])[H])c1[H]


 36 40  0  0  0  0  0  0  0  0999 V2000
   37.8443  -19.8572   35.7518 C   0  0  0  0  0  0  0  0  0  0  0  0
   36.5532  -19.5415   35.3116 C   0  0  0  0  0  0  0  0  0  0  0  0
   35.9953  -18.3186   35.6003 C   0  0  0  0  0  0  0  0  0  0  0  0
   34.7306  -17.9598   35.1906 C   0  0  0  0  0  0  0  0  0  0  0  0
   34.2790  -16.6929   35.5459 C   0  0  0  0  0  0  0  0  0  0  0  0
   35.0583  -15.8124   36.2833 C   0  0  0  0  0  0  0  0  0  0  0  0
   36.2833  -16.2058   36.6602 N   0  0  0  0  0  0  0  0  0  0  0  0
   36.7805  -17.4251   36.3466 C   0  0  0  0  0  0  0  0  0  0  0  0
   38.0493  -17.7616   36.7675 C   0  0  0  0  0  0  0  0  0  0  0  0
   38.6133  -18.9823   36.4825 C   0  0  0  0  0  0  0  0  0  0  0  0
   34.5693  -14.4846   36.6498 C   0  0  0  0  0  0  0  0  0  0  0  0
   35.3166  -13.3264   36.6628 C   0  0  0  0  0  0  0  0  0  0  0  0
   34.5078  -12.2836   37.0615 C   0  0  0  0  0  0  0  0  0  0  0  0
   33.2744  -12.8652   37.2794 C   0  0  0  0  0  0  0  0  0  0  0  0
   32.0868  -12.0803   37.7308 C   0  0  0  0  0  0  0  0  0  0  0  0
   33.3634  -14.1500   37.0253 O   0  0  0  0  0  0  0  0  0  0  0  0
   39.0498  -21.3628   34.2371 C   0  0  0  0  0  0  0  0  0  0  0  0
   38.3286  -21.1176   35.4132 O   0  0  0  0  0  0  0  0  0  0  0  0
   33.9296  -18.8470   34.4615 N   0  0  0  0  0  0  0  0  0  0  0  0
   34.1981  -19.1091   33.4900 H   0  0  0  0  0  0  0  0  0  0  0  0
   32.6981  -19.4357   35.0372 C   0  0  0  0  0  0  0  0  0  0  0  0
   32.1261  -20.4104   34.0657 C   0  0  0  0  0  0  0  0  0  0  0  0
   32.0622  -21.8250   34.5872 C   0  0  0  0  0  0  0  0  0  0  0  0
   31.4488  -21.7105   35.9203 N   0  0  0  0  0  0  0  0  0  0  0  0
   30.7803  -22.9046   36.3294 C   0  0  0  0  0  0  0  0  0  0  0  0
   32.5007  -21.2696   36.7810 C   0  0  0  0  0  0  0  0  0  0  0  0
   33.0121  -19.9365   36.3821 C   0  0  0  0  0  0  0  0  0  0  0  0
   39.8927  -19.3235   36.9064 O   0  0  0  0  0  0  0  0  0  0  0  0
   41.0604  -18.7964   36.3126 C   0  0  0  0  0  0  0  0  0  0  0  0
   42.1193  -18.7477   37.4040 C   0  0  0  0  0  0  0  0  0  0  0  0
   42.3791  -20.0984   37.9869 C   0  0  0  0  0  0  0  0  0  0  0  0
   42.1099  -20.2164   39.3848 N   0  0  0  0  0  0  0  0  0  0  0  0
   43.0840  -21.0947   39.9807 C   0  0  0  0  0  0  0  0  0  0  0  0
   44.2717  -20.1922   40.1998 C   0  0  0  0  0  0  0  0  0  0  0  0
   43.6348  -18.8982   40.6294 C   0  0  0  0  0  0  0  0  0  0  0  0
   42.2423  -18.9632   40.0557 C   0  0  0  0  0  0  0  0  0  0  0  0
 17 18  1  0  0  0
 18  1  1  0  0  0
  1  2  2  0  0  0
  2  3  1  0  0  0
  3  4  2  0  0  0
  4 19  1  0  0  0
 19 21  1  0  0  0
 21 22  1  0  0  0
 22 23  1  0  0  0
 23 24  1  0  0  0
 24 25  1  0  0  0
 24 26  1  0  0  0
 26 27  1  0  0  0
  4  5  1  0  0  0
  5  6  2  0  0  0
  6  7  1  0  0  0
  7  8  2  0  0  0
  8  9  1  0  0  0
  9 10  2  0  0  0
 10 28  1  0  0  0
 28 29  1  0  0  0
 29 30  1  0  0  0
 30 31  1  0  0  0
 31 32  1  0  0  0
 32 33  1  0  0  0
 33 34  1  0  0  0
 34 35  1  0  0  0
 35 36  1  0  0  0
  6 11  1  0  0  0
 11 12  2  0  0  0
 12 13  1  0  0  0
 13 14  2  0  0  0
 14 15  1  0  0  0
 14 16  1  0  0  0
 10  1  1  0  0  0
 36 32  1  0  0  0
 16 11  1  0  0  0
  8  3  1  0  0  0
 27 21  1  0  0  0
 19 20  1  0  0  0
M  END
> <minimizedAffinity>
-6.95548

> <CNNscore>
0.2542004585

> <CNNaffinity>
5.9606275558

> <CNN_VS>
1.5151942968

> <CNNaffinity_variance>
0.1784498245

$$$$
[H]c1c(N2C([H])([H])C([H])([H])N(C([H])([H])[H])C([H])([H])C2([H])[H])nc2c([H])c(OC([H])([H])C([H])([H])C([H])([H])N3C([H])([H])C([H])([H])C([H])([H])C3([H])[H])c(OC([H])([H])[H])c([H])c2c1N([H])C1([H])C([H])([H])C([H])([H])N(C([H])([H])[H])C([H])([H])C1([H])[H]


 37 41  0  0  0  0  0  0  0  0999 V2000
   36.0200  -14.0270   36.6585 C   0  0  0  0  0  0  0  0  0  0  0  0
   36.4538  -15.2600   36.2415 C   0  0  0  0  0  0  0  0  0  0  0  0
   35.6089  -16.2686   35.8528 C   0  0  0  0  0  0  0  0  0  0  0  0
   36.0383  -17.4954   35.4318 C   0  0  0  0  0  0  0  0  0  0  0  0
   35.0578  -18.4184   35.0615 C   0  0  0  0  0  0  0  0  0  0  0  0
   33.7121  -18.1279   35.1097 C   0  0  0  0  0  0  0  0  0  0  0  0
   33.3727  -16.9074   35.5321 N   0  0  0  0  0  0  0  0  0  0  0  0
   34.2534  -15.9946   35.8951 C   0  0  0  0  0  0  0  0  0  0  0  0
   33.7582  -14.7468   36.3145 C   0  0  0  0  0  0  0  0  0  0  0  0
   34.6376  -13.7557   36.6991 C   0  0  0  0  0  0  0  0  0  0  0  0
   32.7113  -19.0571   34.7309 N   0  0  0  0  0  0  0  0  0  0  0  0
   33.0841  -20.3067   34.1061 C   0  0  0  0  0  0  0  0  0  0  0  0
   32.7347  -21.4103   35.1105 C   0  0  0  0  0  0  0  0  0  0  0  0
   31.6371  -20.9887   35.9575 N   0  0  0  0  0  0  0  0  0  0  0  0
   31.0036  -22.1470   36.5269 C   0  0  0  0  0  0  0  0  0  0  0  0
   30.6881  -20.1883   35.2078 C   0  0  0  0  0  0  0  0  0  0  0  0
   31.3080  -18.8052   34.9495 C   0  0  0  0  0  0  0  0  0  0  0  0
   38.1437  -13.4592   37.6351 C   0  0  0  0  0  0  0  0  0  0  0  0
   36.9296  -13.0670   37.0327 O   0  0  0  0  0  0  0  0  0  0  0  0
   37.4100  -17.8126   35.4009 N   0  0  0  0  0  0  0  0  0  0  0  0
   38.0738  -17.2286   35.9504 H   0  0  0  0  0  0  0  0  0  0  0  0
   37.9205  -18.9571   34.6182 C   0  0  0  0  0  0  0  0  0  0  0  0
   38.6813  -19.8347   35.5989 C   0  0  0  0  0  0  0  0  0  0  0  0
   39.9408  -19.0648   35.9391 C   0  0  0  0  0  0  0  0  0  0  0  0
   40.8031  -19.1591   34.7960 N   0  0  0  0  0  0  0  0  0  0  0  0
   41.5510  -20.4014   34.8220 C   0  0  0  0  0  0  0  0  0  0  0  0
   40.2260  -18.8708   33.5509 C   0  0  0  0  0  0  0  0  0  0  0  0
   38.8039  -18.4801   33.5030 C   0  0  0  0  0  0  0  0  0  0  0  0
   34.2990  -12.5216   37.1232 O   0  0  0  0  0  0  0  0  0  0  0  0
   33.4932  -11.9726   38.0621 C   0  0  0  0  0  0  0  0  0  0  0  0
   32.1694  -11.5336   37.4854 C   0  0  0  0  0  0  0  0  0  0  0  0
   31.1027  -12.3332   38.2133 C   0  0  0  0  0  0  0  0  0  0  0  0
   29.7617  -11.9968   37.8222 N   0  0  0  0  0  0  0  0  0  0  0  0
   28.8741  -12.3750   38.9103 C   0  0  0  0  0  0  0  0  0  0  0  0
   27.8498  -11.2386   39.0158 C   0  0  0  0  0  0  0  0  0  0  0  0
   28.7654  -10.0504   38.7917 C   0  0  0  0  0  0  0  0  0  0  0  0
   29.6438  -10.5829   37.6617 C   0  0  0  0  0  0  0  0  0  0  0  0
 18 19  1  0  0  0
 19  1  1  0  0  0
  1  2  2  0  0  0
  2  3  1  0  0  0
  3  4  2  0  0  0
  4 20  1  0  0  0
 20 22  1  0  0  0
 22 23  1  0  0  0
 23 24  1  0  0  0
 24 25  1  0  0  0
 25 26  1  0  0  0
 25 27  1  0  0  0
 27 28  1  0  0  0
  4  5  1  0  0  0
  5  6  2  0  0  0
  6  7  1  0  0  0
  7  8  2  0  0  0
  8  9  1  0  0  0
  9 10  2  0  0  0
 10 29  1  0  0  0
 29 30  1  0  0  0
 30 31  1  0  0  0
 31 32  1  0  0  0
 32 33  1  0  0  0
 33 34  1  0  0  0
 34 35  1  0  0  0
 35 36  1  0  0  0
 36 37  1  0  0  0
  6 11  1  0  0  0
 11 12  1  0  0  0
 12 13  1  0  0  0
 13 14  1  0  0  0
 14 15  1  0  0  0
 14 16  1  0  0  0
 16 17  1  0  0  0
 10  1  1  0  0  0
 37 33  1  0  0  0
 17 11  1  0  0  0
  8  3  1  0  0  0
 28 22  1  0  0  0
 20 21  1  0  0  0
M  END
> <minimizedAffinity>
-8.75426

> <CNNscore>
0.8973953128

> <CNNaffinity>
7.4384384155

> <CNN_VS>
6.6752195358

> <CNNaffinity_variance>
0.1284163892

$$$$
[H]c1c(N2C([H])([H])C([H])([H])N(C([H])([H])[H])C([H])([H])C2([H])[H])nc2c([H])c(OC([H])([H])C([H])([H])C([H])([H])N3C([H])([H])C([H])([H])C([H])([H])C3([H])[H])c(OC([H])([H])[H])c([H])c2c1N([H])C1([H])C([H])([H])C([H])([H])N(C([H])([H])[H])C([H])([H])C1([H])[H]


 37 41  0  0  0  0  0  0  0  0999 V2000
   36.1744  -14.6137   36.3355 C   0  0  0  0  0  0  0  0  0  0  0  0
   36.6761  -15.8601   36.0575 C   0  0  0  0  0  0  0  0  0  0  0  0
   35.8886  -16.9500   35.7854 C   0  0  0  0  0  0  0  0  0  0  0  0
   36.3855  -18.1909   35.5027 C   0  0  0  0  0  0  0  0  0  0  0  0
   35.4579  -19.2013   35.2396 C   0  0  0  0  0  0  0  0  0  0  0  0
   34.0982  -18.9808   35.2581 C   0  0  0  0  0  0  0  0  0  0  0  0
   33.6915  -17.7410   35.5427 N   0  0  0  0  0  0  0  0  0  0  0  0
   34.5200  -16.7470   35.7999 C   0  0  0  0  0  0  0  0  0  0  0  0
   33.9563  -15.4890   36.0788 C   0  0  0  0  0  0  0  0  0  0  0  0
   34.7792  -14.4150   36.3487 C   0  0  0  0  0  0  0  0  0  0  0  0
   33.1507  -19.9993   34.9873 N   0  0  0  0  0  0  0  0  0  0  0  0
   33.2122  -21.2532   35.7047 C   0  0  0  0  0  0  0  0  0  0  0  0
   31.9628  -21.3030   36.5907 C   0  0  0  0  0  0  0  0  0  0  0  0
   30.8934  -20.5284   35.9940 N   0  0  0  0  0  0  0  0  0  0  0  0
   29.6329  -20.9658   36.5300 C   0  0  0  0  0  0  0  0  0  0  0  0
   30.9174  -20.6478   34.5489 C   0  0  0  0  0  0  0  0  0  0  0  0
   32.1044  -19.8335   34.0085 C   0  0  0  0  0  0  0  0  0  0  0  0
   37.9291  -13.6665   37.6810 C   0  0  0  0  0  0  0  0  0  0  0  0
   37.0292  -13.5701   36.5986 O   0  0  0  0  0  0  0  0  0  0  0  0
   37.7725  -18.4347   35.5043 N   0  0  0  0  0  0  0  0  0  0  0  0
   38.3601  -18.0018   34.7621 H   0  0  0  0  0  0  0  0  0  0  0  0
   38.4071  -19.2778   36.5384 C   0  0  0  0  0  0  0  0  0  0  0  0
   39.8375  -18.7802   36.6709 C   0  0  0  0  0  0  0  0  0  0  0  0
   40.5371  -19.2146   35.3994 C   0  0  0  0  0  0  0  0  0  0  0  0
   40.7518  -20.6291   35.5096 N   0  0  0  0  0  0  0  0  0  0  0  0
   41.9552  -20.9049   36.2704 C   0  0  0  0  0  0  0  0  0  0  0  0
   39.6472  -21.4018   35.8960 C   0  0  0  0  0  0  0  0  0  0  0  0
   38.3597  -20.7239   36.1408 C   0  0  0  0  0  0  0  0  0  0  0  0
   34.3726  -13.1616   36.6335 O   0  0  0  0  0  0  0  0  0  0  0  0
   33.9902  -12.4577   37.7246 C   0  0  0  0  0  0  0  0  0  0  0  0
   32.5112  -12.5902   37.9940 C   0  0  0  0  0  0  0  0  0  0  0  0
   31.8480  -11.4029   37.3175 C   0  0  0  0  0  0  0  0  0  0  0  0
   32.2894  -10.1313   37.8202 N   0  0  0  0  0  0  0  0  0  0  0  0
   33.5314   -9.7936   37.1432 C   0  0  0  0  0  0  0  0  0  0  0  0
   33.4372   -8.2929   36.8413 C   0  0  0  0  0  0  0  0  0  0  0  0
   31.9789   -8.2077   36.4331 C   0  0  0  0  0  0  0  0  0  0  0  0
   31.3414   -9.1195   37.4790 C   0  0  0  0  0  0  0  0  0  0  0  0
 18 19  1  0  0  0
 19  1  1  0  0  0
  1  2  2  0  0  0
  2  3  1  0  0  0
  3  4  2  0  0  0
  4 20  1  0  0  0
 20 22  1  0  0  0
 22 23  1  0  0  0
 23 24  1  0  0  0
 24 25  1  0  0  0
 25 26  1  0  0  0
 25 27  1  0  0  0
 27 28  1  0  0  0
  4  5  1  0  0  0
  5  6  2  0  0  0
  6  7  1  0  0  0
  7  8  2  0  0  0
  8  9  1  0  0  0
  9 10  2  0  0  0
 10 29  1  0  0  0
 29 30  1  0  0  0
 30 31  1  0  0  0
 31 32  1  0  0  0
 32 33  1  0  0  0
 33 34  1  0  0  0
 34 35  1  0  0  0
 35 36  1  0  0  0
 36 37  1  0  0  0
  6 11  1  0  0  0
 11 12  1  0  0  0
 12 13  1  0  0  0
 13 14  1  0  0  0
 14 15  1  0  0  0
 14 16  1  0  0  0
 16 17  1  0  0  0
 10  1  1  0  0  0
 37 33  1  0  0  0
 17 11  1  0  0  0
  8  3  1  0  0  0
 28 22  1  0  0  0
 20 21  1  0  0  0
M  END
> <minimizedAffinity>
-7.58731

> <CNNscore>
0.5145179033

> <CNNaffinity>
6.8425512314

> <CNN_VS>
3.5206151009

> <CNNaffinity_variance>
0.2178184092

$$$$
[H]c1c(N2C([H])([H])C([H])([H])N(C([H])([H])[H])C([H])([H])C2([H])[H])nc2c([H])c(OC([H])([H])C([H])([H])C([H])([H])N3C([H])([H])C([H])([H])C([H])([H])C3([H])[H])c(OC([H])([H])[H])c([H])c2c1N([H])C1([H])C([H])([H])C([H])([H])N(C([H])([H])[H])C([H])([H])C1([H])[H]


 37 41  0  0  0  0  0  0  0  0999 V2000
   32.1376  -19.0702   35.6210 C   0  0  0  0  0  0  0  0  0  0  0  0
   32.9559  -17.9690   35.6253 C   0  0  0  0  0  0  0  0  0  0  0  0
   34.3159  -18.0354   35.4566 C   0  0  0  0  0  0  0  0  0  0  0  0
   35.1325  -16.9401   35.4548 C   0  0  0  0  0  0  0  0  0  0  0  0
   36.4975  -17.1664   35.2646 C   0  0  0  0  0  0  0  0  0  0  0  0
   37.0204  -18.4281   35.0845 C   0  0  0  0  0  0  0  0  0  0  0  0
   36.1574  -19.4470   35.0990 N   0  0  0  0  0  0  0  0  0  0  0  0
   34.8586  -19.2950   35.2746 C   0  0  0  0  0  0  0  0  0  0  0  0
   34.0628  -20.4546   35.2619 C   0  0  0  0  0  0  0  0  0  0  0  0
   32.6981  -20.3499   35.4354 C   0  0  0  0  0  0  0  0  0  0  0  0
   38.4034  -18.6656   34.8859 N   0  0  0  0  0  0  0  0  0  0  0  0
   39.2425  -19.0301   36.0056 C   0  0  0  0  0  0  0  0  0  0  0  0
   39.6779  -20.4792   35.7623 C   0  0  0  0  0  0  0  0  0  0  0  0
   39.7040  -20.7635   34.3417 N   0  0  0  0  0  0  0  0  0  0  0  0
   40.5553  -21.8965   34.0989 C   0  0  0  0  0  0  0  0  0  0  0  0
   40.1502  -19.6037   33.5941 C   0  0  0  0  0  0  0  0  0  0  0  0
   39.0213  -18.5598   33.5869 C   0  0  0  0  0  0  0  0  0  0  0  0
   29.9153  -19.1195   34.7016 C   0  0  0  0  0  0  0  0  0  0  0  0
   30.7825  -18.9220   35.7968 O   0  0  0  0  0  0  0  0  0  0  0  0
   34.6131  -15.6476   35.6618 N   0  0  0  0  0  0  0  0  0  0  0  0
   33.9182  -15.2704   34.9848 H   0  0  0  0  0  0  0  0  0  0  0  0
   35.0241  -14.8265   36.8194 C   0  0  0  0  0  0  0  0  0  0  0  0
   33.7411  -14.2971   37.4395 C   0  0  0  0  0  0  0  0  0  0  0  0
   33.2128  -13.2681   36.4613 C   0  0  0  0  0  0  0  0  0  0  0  0
   34.0502  -12.1099   36.5890 N   0  0  0  0  0  0  0  0  0  0  0  0
   33.6140  -11.2844   37.6987 C   0  0  0  0  0  0  0  0  0  0  0  0
   35.4345  -12.3316   36.5571 C   0  0  0  0  0  0  0  0  0  0  0  0
   35.9267  -13.7113   36.3800 C   0  0  0  0  0  0  0  0  0  0  0  0
   31.8233  -21.3756   35.4476 O   0  0  0  0  0  0  0  0  0  0  0  0
   31.5886  -22.4812   36.1926 C   0  0  0  0  0  0  0  0  0  0  0  0
   31.6424  -22.1888   37.6721 C   0  0  0  0  0  0  0  0  0  0  0  0
   32.7383  -23.0736   38.2407 C   0  0  0  0  0  0  0  0  0  0  0  0
   34.0552  -22.5119   38.1186 N   0  0  0  0  0  0  0  0  0  0  0  0
   34.0696  -21.2528   38.8461 C   0  0  0  0  0  0  0  0  0  0  0  0
   35.4220  -21.2137   39.5683 C   0  0  0  0  0  0  0  0  0  0  0  0
   35.5182  -22.6631   40.0048 C   0  0  0  0  0  0  0  0  0  0  0  0
   35.0077  -23.3680   38.7501 C   0  0  0  0  0  0  0  0  0  0  0  0
 18 19  1  0  0  0
 19  1  1  0  0  0
  1  2  2  0  0  0
  2  3  1  0  0  0
  3  4  2  0  0  0
  4 20  1  0  0  0
 20 22  1  0  0  0
 22 23  1  0  0  0
 23 24  1  0  0  0
 24 25  1  0  0  0
 25 26  1  0  0  0
 25 27  1  0  0  0
 27 28  1  0  0  0
  4  5  1  0  0  0
  5  6  2  0  0  0
  6  7  1  0  0  0
  7  8  2  0  0  0
  8  9  1  0  0  0
  9 10  2  0  0  0
 10 29  1  0  0  0
 29 30  1  0  0  0
 30 31  1  0  0  0
 31 32  1  0  0  0
 32 33  1  0  0  0
 33 34  1  0  0  0
 34 35  1  0  0  0
 35 36  1  0  0  0
 36 37  1  0  0  0
  6 11  1  0  0  0
 11 12  1  0  0  0
 12 13  1  0  0  0
 13 14  1  0  0  0
 14 15  1  0  0  0
 14 16  1  0  0  0
 16 17  1  0  0  0
 10  1  1  0  0  0
 37 33  1  0  0  0
 17 11  1  0  0  0
  8  3  1  0  0  0
 28 22  1  0  0  0
 20 21  1  0  0  0
M  END
> <minimizedAffinity>
-5.98772

> <CNNscore>
0.3730893433

> <CNNaffinity>
6.3721213341

> <CNN_VS>
2.3773705959

> <CNNaffinity_variance>
0.2117980272

$$$$
[H]c1c(N2C([H])([H])C([H])([H])N(C([H])([H])[H])C([H])([H])C2([H])[H])nc2c([H])c(OC([H])([H])C([H])([H])C([H])([H])N3C([H])([H])C([H])([H])C([H])([H])C3([H])[H])c(OC([H])([H])[H])c([H])c2c1N([H])C1([H])C([H])([H])C([H])([H])N(C([H])([H])[H])C([H])([H])C1([H])[H]


 37 41  0  0  0  0  0  0  0  0999 V2000
   36.3449  -21.9575   38.4011 C   0  0  0  0  0  0  0  0  0  0  0  0
   37.2399  -21.3033   37.5928 C   0  0  0  0  0  0  0  0  0  0  0  0
   37.1624  -19.9640   37.3055 C   0  0  0  0  0  0  0  0  0  0  0  0
   38.0554  -19.3088   36.5055 C   0  0  0  0  0  0  0  0  0  0  0  0
   37.8489  -17.9413   36.3110 C   0  0  0  0  0  0  0  0  0  0  0  0
   36.7996  -17.2617   36.8894 C   0  0  0  0  0  0  0  0  0  0  0  0
   35.9704  -17.9724   37.6579 N   0  0  0  0  0  0  0  0  0  0  0  0
   36.1143  -19.2653   37.8778 C   0  0  0  0  0  0  0  0  0  0  0  0
   35.1709  -19.8896   38.7136 C   0  0  0  0  0  0  0  0  0  0  0  0
   35.2797  -21.2388   38.9801 C   0  0  0  0  0  0  0  0  0  0  0  0
   36.5861  -15.8733   36.7011 N   0  0  0  0  0  0  0  0  0  0  0  0
   35.8142  -15.4073   35.5707 C   0  0  0  0  0  0  0  0  0  0  0  0
   34.5256  -14.8108   36.1469 C   0  0  0  0  0  0  0  0  0  0  0  0
   34.7582  -14.3152   37.4885 N   0  0  0  0  0  0  0  0  0  0  0  0
   33.7465  -13.3491   37.8208 C   0  0  0  0  0  0  0  0  0  0  0  0
   36.0859  -13.7427   37.6014 C   0  0  0  0  0  0  0  0  0  0  0  0
   37.1144  -14.8855   37.6096 C   0  0  0  0  0  0  0  0  0  0  0  0
   37.5819  -23.9949   38.0770 C   0  0  0  0  0  0  0  0  0  0  0  0
   36.4896  -23.3030   38.6416 O   0  0  0  0  0  0  0  0  0  0  0  0
   39.1183  -19.9971   35.8892 N   0  0  0  0  0  0  0  0  0  0  0  0
   39.9774  -20.1952   36.4428 H   0  0  0  0  0  0  0  0  0  0  0  0
   39.0340  -20.4503   34.4855 C   0  0  0  0  0  0  0  0  0  0  0  0
   39.4519  -21.9119   34.4869 C   0  0  0  0  0  0  0  0  0  0  0  0
   40.9428  -21.9069   34.7552 C   0  0  0  0  0  0  0  0  0  0  0  0
   41.5777  -21.4651   33.5466 N   0  0  0  0  0  0  0  0  0  0  0  0
   41.7438  -22.5712   32.6235 C   0  0  0  0  0  0  0  0  0  0  0  0
   41.0577  -20.3053   32.9540 C   0  0  0  0  0  0  0  0  0  0  0  0
   39.9269  -19.6210   33.6099 C   0  0  0  0  0  0  0  0  0  0  0  0
   34.4465  -21.9591   39.7576 O   0  0  0  0  0  0  0  0  0  0  0  0
   34.0972  -22.0169   41.0641 C   0  0  0  0  0  0  0  0  0  0  0  0
   35.2451  -21.6526   41.9737 C   0  0  0  0  0  0  0  0  0  0  0  0
   36.0636  -22.9194   42.1532 C   0  0  0  0  0  0  0  0  0  0  0  0
   37.4304  -22.6760   42.5236 N   0  0  0  0  0  0  0  0  0  0  0  0
   38.2679  -23.5736   41.7439 C   0  0  0  0  0  0  0  0  0  0  0  0
   39.4861  -22.7391   41.3297 C   0  0  0  0  0  0  0  0  0  0  0  0
   38.7971  -21.4263   41.0099 C   0  0  0  0  0  0  0  0  0  0  0  0
   37.8003  -21.3446   42.1638 C   0  0  0  0  0  0  0  0  0  0  0  0
 18 19  1  0  0  0
 19  1  1  0  0  0
  1  2  2  0  0  0
  2  3  1  0  0  0
  3  4  2  0  0  0
  4 20  1  0  0  0
 20 22  1  0  0  0
 22 23  1  0  0  0
 23 24  1  0  0  0
 24 25  1  0  0  0
 25 26  1  0  0  0
 25 27  1  0  0  0
 27 28  1  0  0  0
  4  5  1  0  0  0
  5  6  2  0  0  0
  6  7  1  0  0  0
  7  8  2  0  0  0
  8  9  1  0  0  0
  9 10  2  0  0  0
 10 29  1  0  0  0
 29 30  1  0  0  0
 30 31  1  0  0  0
 31 32  1  0  0  0
 32 33  1  0  0  0
 33 34  1  0  0  0
 34 35  1  0  0  0
 35 36  1  0  0  0
 36 37  1  0  0  0
  6 11  1  0  0  0
 11 12  1  0  0  0
 12 13  1  0  0  0
 13 14  1  0  0  0
 14 15  1  0  0  0
 14 16  1  0  0  0
 16 17  1  0  0  0
 10  1  1  0  0  0
 37 33  1  0  0  0
 17 11  1  0  0  0
  8  3  1  0  0  0
 28 22  1  0  0  0
 20 21  1  0  0  0
M  END
> <minimizedAffinity>
-5.18914

> <CNNscore>
0.3670632541

> <CNNaffinity>
5.9368395805

> <CNN_VS>
2.1791956425

> <CNNaffinity_variance>
0.1087999120

$$$$
[H]c1c(N2C([H])([H])C([H])([H])N(C([H])([H])[H])C([H])([H])C2([H])[H])nc2c([H])c(OC([H])([H])C([H])([H])C([H])([H])N3C([H])([H])C([H])([H])C([H])([H])C3([H])[H])c(OC([H])([H])[H])c([H])c2c1N([H])C1([H])C([H])([H])C([H])([H])N(C([H])([H])[H])C([H])([H])C1([H])[H]


 37 41  0  0  0  0  0  0  0  0999 V2000
   35.9640  -19.4988   37.5452 C   0  0  0  0  0  0  0  0  0  0  0  0
   37.0168  -20.2487   38.0052 C   0  0  0  0  0  0  0  0  0  0  0  0
   38.3063  -20.0956   37.5625 C   0  0  0  0  0  0  0  0  0  0  0  0
   39.3575  -20.8370   38.0228 C   0  0  0  0  0  0  0  0  0  0  0  0
   40.6146  -20.5610   37.4806 C   0  0  0  0  0  0  0  0  0  0  0  0
   40.8108  -19.5894   36.5238 C   0  0  0  0  0  0  0  0  0  0  0  0
   39.7336  -18.9080   36.1257 N   0  0  0  0  0  0  0  0  0  0  0  0
   38.5219  -19.1243   36.6010 C   0  0  0  0  0  0  0  0  0  0  0  0
   37.4767  -18.3293   36.0974 C   0  0  0  0  0  0  0  0  0  0  0  0
   36.1917  -18.5116   36.5655 C   0  0  0  0  0  0  0  0  0  0  0  0
   42.0838  -19.2999   35.9724 N   0  0  0  0  0  0  0  0  0  0  0  0
   42.1848  -18.5382   34.7475 C   0  0  0  0  0  0  0  0  0  0  0  0
   42.8255  -17.1985   35.1262 C   0  0  0  0  0  0  0  0  0  0  0  0
   43.6702  -17.3582   36.2927 N   0  0  0  0  0  0  0  0  0  0  0  0
   44.6209  -16.2807   36.3427 C   0  0  0  0  0  0  0  0  0  0  0  0
   44.3383  -18.6452   36.2705 C   0  0  0  0  0  0  0  0  0  0  0  0
   43.3080  -19.7392   36.5957 C   0  0  0  0  0  0  0  0  0  0  0  0
   34.4610  -20.8167   38.8834 C   0  0  0  0  0  0  0  0  0  0  0  0
   34.6990  -19.7120   38.0385 O   0  0  0  0  0  0  0  0  0  0  0  0
   39.1660  -21.8491   38.9831 N   0  0  0  0  0  0  0  0  0  0  0  0
   38.1948  -22.1122   39.2497 H   0  0  0  0  0  0  0  0  0  0  0  0
   40.3087  -22.5479   39.6068 C   0  0  0  0  0  0  0  0  0  0  0  0
   39.9083  -24.0112   39.7033 C   0  0  0  0  0  0  0  0  0  0  0  0
   38.8435  -24.0700   40.7792 C   0  0  0  0  0  0  0  0  0  0  0  0
   39.5179  -23.9105   42.0358 N   0  0  0  0  0  0  0  0  0  0  0  0
   40.0539  -25.1785   42.4918 C   0  0  0  0  0  0  0  0  0  0  0  0
   40.4249  -22.8451   42.1287 C   0  0  0  0  0  0  0  0  0  0  0  0
   40.6078  -21.9666   40.9574 C   0  0  0  0  0  0  0  0  0  0  0  0
   35.1024  -17.8238   36.1683 O   0  0  0  0  0  0  0  0  0  0  0  0
   34.0684  -17.9954   35.3118 C   0  0  0  0  0  0  0  0  0  0  0  0
   34.3788  -19.0195   34.2476 C   0  0  0  0  0  0  0  0  0  0  0  0
   33.1244  -19.8611   34.0889 C   0  0  0  0  0  0  0  0  0  0  0  0
   32.1774  -19.6927   35.1562 N   0  0  0  0  0  0  0  0  0  0  0  0
   30.8710  -19.4665   34.5586 C   0  0  0  0  0  0  0  0  0  0  0  0
   29.8848  -20.2684   35.4166 C   0  0  0  0  0  0  0  0  0  0  0  0
   30.7127  -21.5169   35.6543 C   0  0  0  0  0  0  0  0  0  0  0  0
   32.0839  -20.8981   35.9160 C   0  0  0  0  0  0  0  0  0  0  0  0
 18 19  1  0  0  0
 19  1  1  0  0  0
  1  2  2  0  0  0
  2  3  1  0  0  0
  3  4  2  0  0  0
  4 20  1  0  0  0
 20 22  1  0  0  0
 22 23  1  0  0  0
 23 24  1  0  0  0
 24 25  1  0  0  0
 25 26  1  0  0  0
 25 27  1  0  0  0
 27 28  1  0  0  0
  4  5  1  0  0  0
  5  6  2  0  0  0
  6  7  1  0  0  0
  7  8  2  0  0  0
  8  9  1  0  0  0
  9 10  2  0  0  0
 10 29  1  0  0  0
 29 30  1  0  0  0
 30 31  1  0  0  0
 31 32  1  0  0  0
 32 33  1  0  0  0
 33 34  1  0  0  0
 34 35  1  0  0  0
 35 36  1  0  0  0
 36 37  1  0  0  0
  6 11  1  0  0  0
 11 12  1  0  0  0
 12 13  1  0  0  0
 13 14  1  0  0  0
 14 15  1  0  0  0
 14 16  1  0  0  0
 16 17  1  0  0  0
 10  1  1  0  0  0
 37 33  1  0  0  0
 17 11  1  0  0  0
  8  3  1  0  0  0
 28 22  1  0  0  0
 20 21  1  0  0  0
M  END
> <minimizedAffinity>
-5.14215

> <CNNscore>
0.3325532973

> <CNNaffinity>
5.2206072807

> <CNN_VS>
1.7361301184

> <CNNaffinity_variance>
0.8459412456

$$$$
[H]c1c(N2C([H])([H])C([H])([H])N(C([H])([H])[H])C([H])([H])C2([H])[H])nc2c([H])c(OC([H])([H])C([H])([H])C([H])([H])N3C([H])([H])C([H])([H])C([H])([H])C3([H])[H])c(OC([H])([H])[H])c([H])c2c1N([H])C1([H])C([H])([H])C([H])([H])N(C([H])([H])[H])C([H])([H])C1([H])[H]


 37 41  0  0  0  0  0  0  0  0999 V2000
   36.2148  -21.7497   37.6827 C   0  0  0  0  0  0  0  0  0  0  0  0
   37.2147  -20.9081   37.2652 C   0  0  0  0  0  0  0  0  0  0  0  0
   37.0294  -19.5688   37.0328 C   0  0  0  0  0  0  0  0  0  0  0  0
   38.0245  -18.7272   36.6224 C   0  0  0  0  0  0  0  0  0  0  0  0
   37.6839  -17.3860   36.4337 C   0  0  0  0  0  0  0  0  0  0  0  0
   36.4090  -16.9093   36.6458 C   0  0  0  0  0  0  0  0  0  0  0  0
   35.4924  -17.7942   37.0460 N   0  0  0  0  0  0  0  0  0  0  0  0
   35.7547  -19.0725   37.2405 C   0  0  0  0  0  0  0  0  0  0  0  0
   34.6961  -19.8937   37.6684 C   0  0  0  0  0  0  0  0  0  0  0  0
   34.9189  -21.2367   37.8917 C   0  0  0  0  0  0  0  0  0  0  0  0
   36.0565  -15.5491   36.4615 N   0  0  0  0  0  0  0  0  0  0  0  0
   35.0265  -15.1913   35.5118 C   0  0  0  0  0  0  0  0  0  0  0  0
   33.8513  -14.6530   36.3350 C   0  0  0  0  0  0  0  0  0  0  0  0
   34.3298  -14.0773   37.5757 N   0  0  0  0  0  0  0  0  0  0  0  0
   33.3440  -13.1645   38.0879 C   0  0  0  0  0  0  0  0  0  0  0  0
   35.6039  -13.4140   37.3762 C   0  0  0  0  0  0  0  0  0  0  0  0
   36.6927  -14.4849   37.1984 C   0  0  0  0  0  0  0  0  0  0  0  0
   37.7163  -23.6180   37.4783 C   0  0  0  0  0  0  0  0  0  0  0  0
   36.4792  -23.0818   37.8942 O   0  0  0  0  0  0  0  0  0  0  0  0
   39.3260  -19.2070   36.3791 N   0  0  0  0  0  0  0  0  0  0  0  0
   39.8655  -19.6198   37.1679 H   0  0  0  0  0  0  0  0  0  0  0  0
   39.9322  -19.1465   35.0331 C   0  0  0  0  0  0  0  0  0  0  0  0
   39.5260  -20.4306   34.3281 C   0  0  0  0  0  0  0  0  0  0  0  0
   40.3128  -21.5324   35.0077 C   0  0  0  0  0  0  0  0  0  0  0  0
   41.6680  -21.4130   34.5514 N   0  0  0  0  0  0  0  0  0  0  0  0
   41.8364  -22.0763   33.2729 C   0  0  0  0  0  0  0  0  0  0  0  0
   42.2360  -20.1319   34.6047 C   0  0  0  0  0  0  0  0  0  0  0  0
   41.4239  -19.0187   35.1326 C   0  0  0  0  0  0  0  0  0  0  0  0
   33.9971  -22.1325   38.2986 O   0  0  0  0  0  0  0  0  0  0  0  0
   32.6539  -22.2862   38.2314 C   0  0  0  0  0  0  0  0  0  0  0  0
   32.2620  -23.7090   37.9157 C   0  0  0  0  0  0  0  0  0  0  0  0
   31.7072  -23.6931   36.5018 C   0  0  0  0  0  0  0  0  0  0  0  0
   31.0253  -24.9037   36.1357 N   0  0  0  0  0  0  0  0  0  0  0  0
   29.6928  -24.5416   35.6794 C   0  0  0  0  0  0  0  0  0  0  0  0
   29.4196  -25.4368   34.4645 C   0  0  0  0  0  0  0  0  0  0  0  0
   30.7860  -25.3959   33.8073 C   0  0  0  0  0  0  0  0  0  0  0  0
   31.6897  -25.5195   35.0320 C   0  0  0  0  0  0  0  0  0  0  0  0
 18 19  1  0  0  0
 19  1  1  0  0  0
  1  2  2  0  0  0
  2  3  1  0  0  0
  3  4  2  0  0  0
  4 20  1  0  0  0
 20 22  1  0  0  0
 22 23  1  0  0  0
 23 24  1  0  0  0
 24 25  1  0  0  0
 25 26  1  0  0  0
 25 27  1  0  0  0
 27 28  1  0  0  0
  4  5  1  0  0  0
  5  6  2  0  0  0
  6  7  1  0  0  0
  7  8  2  0  0  0
  8  9  1  0  0  0
  9 10  2  0  0  0
 10 29  1  0  0  0
 29 30  1  0  0  0
 30 31  1  0  0  0
 31 32  1  0  0  0
 32 33  1  0  0  0
 33 34  1  0  0  0
 34 35  1  0  0  0
 35 36  1  0  0  0
 36 37  1  0  0  0
  6 11  1  0  0  0
 11 12  1  0  0  0
 12 13  1  0  0  0
 13 14  1  0  0  0
 14 15  1  0  0  0
 14 16  1  0  0  0
 16 17  1  0  0  0
 10  1  1  0  0  0
 37 33  1  0  0  0
 17 11  1  0  0  0
  8  3  1  0  0  0
 28 22  1  0  0  0
 20 21  1  0  0  0
M  END
> <minimizedAffinity>
-5.05603

> <CNNscore>
0.3207193315

> <CNNaffinity>
5.9713521004

> <CNN_VS>
1.9151281118

> <CNNaffinity_variance>
0.0365415551

$$$$
[H]c1c(N2C([H])([H])C([H])([H])N(C([H])([H])[H])C([H])([H])C2([H])[H])nc2c([H])c(OC([H])([H])C([H])([H])C([H])([H])N3C([H])([H])C([H])([H])C([H])([H])C3([H])[H])c(OC([H])([H])[H])c([H])c2c1N([H])C1([H])C([H])([H])C([H])([H])N(C([H])([H])[H])C([H])([H])C1([H])[H]


 37 41  0  0  0  0  0  0  0  0999 V2000
   33.6634  -18.4693   35.9884 C   0  0  0  0  0  0  0  0  0  0  0  0
   34.2385  -19.6577   36.3619 C   0  0  0  0  0  0  0  0  0  0  0  0
   35.5943  -19.8486   36.4490 C   0  0  0  0  0  0  0  0  0  0  0  0
   36.1695  -21.0291   36.8260 C   0  0  0  0  0  0  0  0  0  0  0  0
   37.5647  -21.0685   36.8741 C   0  0  0  0  0  0  0  0  0  0  0  0
   38.3471  -19.9789   36.5604 C   0  0  0  0  0  0  0  0  0  0  0  0
   37.7099  -18.8616   36.2012 N   0  0  0  0  0  0  0  0  0  0  0  0
   36.3957  -18.7648   36.1371 C   0  0  0  0  0  0  0  0  0  0  0  0
   35.8552  -17.5256   35.7493 C   0  0  0  0  0  0  0  0  0  0  0  0
   34.4866  -17.3700   35.6720 C   0  0  0  0  0  0  0  0  0  0  0  0
   39.7630  -20.0092   36.6117 N   0  0  0  0  0  0  0  0  0  0  0  0
   40.5273  -20.1697   35.3947 C   0  0  0  0  0  0  0  0  0  0  0  0
   41.2661  -18.8453   35.1736 C   0  0  0  0  0  0  0  0  0  0  0  0
   41.5068  -18.1872   36.4420 N   0  0  0  0  0  0  0  0  0  0  0  0
   42.5878  -17.2507   36.2943 C   0  0  0  0  0  0  0  0  0  0  0  0
   41.7945  -19.1597   37.4786 C   0  0  0  0  0  0  0  0  0  0  0  0
   40.4889  -19.8811   37.8514 C   0  0  0  0  0  0  0  0  0  0  0  0
   31.5327  -19.4333   35.4251 C   0  0  0  0  0  0  0  0  0  0  0  0
   32.2951  -18.3563   35.9246 O   0  0  0  0  0  0  0  0  0  0  0  0
   35.3814  -22.1570   37.1260 N   0  0  0  0  0  0  0  0  0  0  0  0
   34.8225  -22.5967   36.3657 H   0  0  0  0  0  0  0  0  0  0  0  0
   35.3414  -22.7313   38.4867 C   0  0  0  0  0  0  0  0  0  0  0  0
   34.1570  -23.6839   38.5093 C   0  0  0  0  0  0  0  0  0  0  0  0
   32.9263  -22.8013   38.4748 C   0  0  0  0  0  0  0  0  0  0  0  0
   32.8025  -22.2154   39.7789 N   0  0  0  0  0  0  0  0  0  0  0  0
   32.1292  -23.1253   40.6854 C   0  0  0  0  0  0  0  0  0  0  0  0
   33.9596  -21.6329   40.3159 C   0  0  0  0  0  0  0  0  0  0  0  0
   35.1971  -21.6457   39.5124 C   0  0  0  0  0  0  0  0  0  0  0  0
   33.8397  -16.2431   35.3127 O   0  0  0  0  0  0  0  0  0  0  0  0
   33.9511  -14.9122   35.5333 C   0  0  0  0  0  0  0  0  0  0  0  0
   33.5371  -14.5339   36.9344 C   0  0  0  0  0  0  0  0  0  0  0  0
   34.6937  -13.7424   37.5201 C   0  0  0  0  0  0  0  0  0  0  0  0
   35.9618  -14.0383   36.9130 N   0  0  0  0  0  0  0  0  0  0  0  0
   36.6750  -12.7826   36.7410 C   0  0  0  0  0  0  0  0  0  0  0  0
   38.1324  -13.0868   37.1091 C   0  0  0  0  0  0  0  0  0  0  0  0
   37.9080  -13.9953   38.3027 C   0  0  0  0  0  0  0  0  0  0  0  0
   36.7450  -14.8440   37.7941 C   0  0  0  0  0  0  0  0  0  0  0  0
 18 19  1  0  0  0
 19  1  1  0  0  0
  1  2  2  0  0  0
  2  3  1  0  0  0
  3  4  2  0  0  0
  4 20  1  0  0  0
 20 22  1  0  0  0
 22 23  1  0  0  0
 23 24  1  0  0  0
 24 25  1  0  0  0
 25 26  1  0  0  0
 25 27  1  0  0  0
 27 28  1  0  0  0
  4  5  1  0  0  0
  5  6  2  0  0  0
  6  7  1  0  0  0
  7  8  2  0  0  0
  8  9  1  0  0  0
  9 10  2  0  0  0
 10 29  1  0  0  0
 29 30  1  0  0  0
 30 31  1  0  0  0
 31 32  1  0  0  0
 32 33  1  0  0  0
 33 34  1  0  0  0
 34 35  1  0  0  0
 35 36  1  0  0  0
 36 37  1  0  0  0
  6 11  1  0  0  0
 11 12  1  0  0  0
 12 13  1  0  0  0
 13 14  1  0  0  0
 14 15  1  0  0  0
 14 16  1  0  0  0
 16 17  1  0  0  0
 10  1  1  0  0  0
 37 33  1  0  0  0
 17 11  1  0  0  0
  8  3  1  0  0  0
 28 22  1  0  0  0
 20 21  1  0  0  0
M  END
> <minimizedAffinity>
-5.49434

> <CNNscore>
0.2998332977

> <CNNaffinity>
5.9257812500

> <CNN_VS>
1.7767465115

> <CNNaffinity_variance>
0.2608473897

$$$$
[H]c1c(N2C([H])([H])C([H])([H])N(C([H])([H])[H])C([H])([H])C2([H])[H])nc2c([H])c(OC([H])([H])C([H])([H])C([H])([H])N3C([H])([H])C([H])([H])C([H])([H])C3([H])[H])c(OC([H])([H])[H])c([H])c2c1N([H])C1([H])C([H])([H])C([H])([H])N(C([H])([H])[H])C([H])([H])C1([H])[H]


 37 41  0  0  0  0  0  0  0  0999 V2000
   33.2305  -20.7578   35.8102 C   0  0  0  0  0  0  0  0  0  0  0  0
   34.4128  -20.1124   36.0706 C   0  0  0  0  0  0  0  0  0  0  0  0
   34.5511  -18.7476   36.0501 C   0  0  0  0  0  0  0  0  0  0  0  0
   35.7258  -18.1020   36.3144 C   0  0  0  0  0  0  0  0  0  0  0  0
   35.7091  -16.7065   36.2614 C   0  0  0  0  0  0  0  0  0  0  0  0
   34.5714  -15.9910   35.9587 C   0  0  0  0  0  0  0  0  0  0  0  0
   33.4634  -16.6946   35.7127 N   0  0  0  0  0  0  0  0  0  0  0  0
   33.4185  -18.0127   35.7475 C   0  0  0  0  0  0  0  0  0  0  0  0
   32.1832  -18.6267   35.4734 C   0  0  0  0  0  0  0  0  0  0  0  0
   32.0813  -20.0023   35.5025 C   0  0  0  0  0  0  0  0  0  0  0  0
   34.5449  -14.5750   35.9079 N   0  0  0  0  0  0  0  0  0  0  0  0
   33.3756  -13.8915   35.4017 C   0  0  0  0  0  0  0  0  0  0  0  0
   32.7562  -13.1577   36.5960 C   0  0  0  0  0  0  0  0  0  0  0  0
   33.7786  -12.8312   37.5695 N   0  0  0  0  0  0  0  0  0  0  0  0
   33.3158  -11.7544   38.4024 C   0  0  0  0  0  0  0  0  0  0  0  0
   35.0233  -12.4855   36.9105 C   0  0  0  0  0  0  0  0  0  0  0  0
   35.6566  -13.7703   36.3516 C   0  0  0  0  0  0  0  0  0  0  0  0
   33.2769  -22.7934   37.0912 C   0  0  0  0  0  0  0  0  0  0  0  0
   33.1717  -22.1305   35.8501 O   0  0  0  0  0  0  0  0  0  0  0  0
   36.9011  -18.8227   36.6015 N   0  0  0  0  0  0  0  0  0  0  0  0
   36.8378  -19.6682   37.2055 H   0  0  0  0  0  0  0  0  0  0  0  0
   38.2116  -18.4116   36.0567 C   0  0  0  0  0  0  0  0  0  0  0  0
   38.1822  -18.7583   34.5769 C   0  0  0  0  0  0  0  0  0  0  0  0
   38.2452  -20.2705   34.5136 C   0  0  0  0  0  0  0  0  0  0  0  0
   39.5946  -20.6406   34.8317 N   0  0  0  0  0  0  0  0  0  0  0  0
   40.4388  -20.5524   33.6557 C   0  0  0  0  0  0  0  0  0  0  0  0
   40.1524  -20.0513   35.9755 C   0  0  0  0  0  0  0  0  0  0  0  0
   39.3244  -19.1228   36.7690 C   0  0  0  0  0  0  0  0  0  0  0  0
   30.9640  -20.7160   35.2577 O   0  0  0  0  0  0  0  0  0  0  0  0
   29.6451  -20.6420   35.5531 C   0  0  0  0  0  0  0  0  0  0  0  0
   29.0077  -22.0070   35.6434 C   0  0  0  0  0  0  0  0  0  0  0  0
   29.5409  -22.6415   36.9163 C   0  0  0  0  0  0  0  0  0  0  0  0
   29.0828  -21.9992   38.1172 N   0  0  0  0  0  0  0  0  0  0  0  0
   27.6858  -21.6439   37.9251 C   0  0  0  0  0  0  0  0  0  0  0  0
   26.9970  -21.9587   39.2587 C   0  0  0  0  0  0  0  0  0  0  0  0
   27.6967  -23.2593   39.6044 C   0  0  0  0  0  0  0  0  0  0  0  0
   29.1316  -22.9194   39.2080 C   0  0  0  0  0  0  0  0  0  0  0  0
 18 19  1  0  0  0
 19  1  1  0  0  0
  1  2  2  0  0  0
  2  3  1  0  0  0
  3  4  2  0  0  0
  4 20  1  0  0  0
 20 22  1  0  0  0
 22 23  1  0  0  0
 23 24  1  0  0  0
 24 25  1  0  0  0
 25 26  1  0  0  0
 25 27  1  0  0  0
 27 28  1  0  0  0
  4  5  1  0  0  0
  5  6  2  0  0  0
  6  7  1  0  0  0
  7  8  2  0  0  0
  8  9  1  0  0  0
  9 10  2  0  0  0
 10 29  1  0  0  0
 29 30  1  0  0  0
 30 31  1  0  0  0
 31 32  1  0  0  0
 32 33  1  0  0  0
 33 34  1  0  0  0
 34 35  1  0  0  0
 35 36  1  0  0  0
 36 37  1  0  0  0
  6 11  1  0  0  0
 11 12  1  0  0  0
 12 13  1  0  0  0
 13 14  1  0  0  0
 14 15  1  0  0  0
 14 16  1  0  0  0
 16 17  1  0  0  0
 10  1  1  0  0  0
 37 33  1  0  0  0
 17 11  1  0  0  0
  8  3  1  0  0  0
 28 22  1  0  0  0
 20 21  1  0  0  0
M  END
> <minimizedAffinity>
-6.06469

> <CNNscore>
0.2938019931

> <CNNaffinity>
6.0939846039

> <CNN_VS>
1.7904248238

> <CNNaffinity_variance>
0.2065114081

$$$$
[H]c1c(N2C([H])([H])C([H])([H])N(C([H])([H])[H])C([H])([H])C2([H])[H])nc2c([H])c(OC([H])([H])C([H])([H])C([H])([H])N3C([H])([H])C([H])([H])C([H])([H])C3([H])[H])c(OC([H])([H])[H])c([H])c2c1N([H])C1([H])C([H])([H])C([H])([H])N(C([H])([H])[H])C([H])([H])C1([H])[H]


 37 41  0  0  0  0  0  0  0  0999 V2000
   35.0122  -20.7206   38.9035 C   0  0  0  0  0  0  0  0  0  0  0  0
   35.3447  -19.5249   38.3185 C   0  0  0  0  0  0  0  0  0  0  0  0
   36.4032  -19.3705   37.4594 C   0  0  0  0  0  0  0  0  0  0  0  0
   36.7333  -18.1824   36.8711 C   0  0  0  0  0  0  0  0  0  0  0  0
   37.8354  -18.1834   36.0133 C   0  0  0  0  0  0  0  0  0  0  0  0
   38.5719  -19.3188   35.7560 C   0  0  0  0  0  0  0  0  0  0  0  0
   38.1860  -20.4405   36.3692 N   0  0  0  0  0  0  0  0  0  0  0  0
   37.1545  -20.5006   37.1896 C   0  0  0  0  0  0  0  0  0  0  0  0
   36.8546  -21.7492   37.7635 C   0  0  0  0  0  0  0  0  0  0  0  0
   35.7826  -21.8671   38.6239 C   0  0  0  0  0  0  0  0  0  0  0  0
   39.6882  -19.3292   34.8830 N   0  0  0  0  0  0  0  0  0  0  0  0
   41.0291  -19.3349   35.4241 C   0  0  0  0  0  0  0  0  0  0  0  0
   41.6298  -20.6993   35.0692 C   0  0  0  0  0  0  0  0  0  0  0  0
   41.0236  -21.2148   33.8582 N   0  0  0  0  0  0  0  0  0  0  0  0
   41.8943  -22.1970   33.2712 C   0  0  0  0  0  0  0  0  0  0  0  0
   40.7438  -20.1395   32.9262 C   0  0  0  0  0  0  0  0  0  0  0  0
   39.5404  -19.3376   33.4483 C   0  0  0  0  0  0  0  0  0  0  0  0
   34.1324  -20.6100   41.1395 C   0  0  0  0  0  0  0  0  0  0  0  0
   33.9357  -20.7951   39.7547 O   0  0  0  0  0  0  0  0  0  0  0  0
   36.0030  -17.0098   37.1447 N   0  0  0  0  0  0  0  0  0  0  0  0
   35.6760  -16.8364   38.1177 H   0  0  0  0  0  0  0  0  0  0  0  0
   35.7035  -16.0222   36.0873 C   0  0  0  0  0  0  0  0  0  0  0  0
   36.4735  -14.7637   36.4535 C   0  0  0  0  0  0  0  0  0  0  0  0
   35.7648  -14.1928   37.6645 C   0  0  0  0  0  0  0  0  0  0  0  0
   34.5422  -13.6104   37.1902 N   0  0  0  0  0  0  0  0  0  0  0  0
   34.7760  -12.2693   36.6902 C   0  0  0  0  0  0  0  0  0  0  0  0
   33.7593  -14.4041   36.3396 C   0  0  0  0  0  0  0  0  0  0  0  0
   34.2274  -15.7642   36.0106 C   0  0  0  0  0  0  0  0  0  0  0  0
   35.3881  -22.9982   39.2424 O   0  0  0  0  0  0  0  0  0  0  0  0
   35.9310  -23.9363   40.0534 C   0  0  0  0  0  0  0  0  0  0  0  0
   35.0632  -25.1667   40.1559 C   0  0  0  0  0  0  0  0  0  0  0  0
   34.4629  -25.1483   41.5510 C   0  0  0  0  0  0  0  0  0  0  0  0
   33.1729  -25.7759   41.6327 N   0  0  0  0  0  0  0  0  0  0  0  0
   32.5175  -25.2876   42.8355 C   0  0  0  0  0  0  0  0  0  0  0  0
   31.0531  -25.0616   42.4397 C   0  0  0  0  0  0  0  0  0  0  0  0
   31.2526  -24.4716   41.0568 C   0  0  0  0  0  0  0  0  0  0  0  0
   32.3662  -25.3716   40.5261 C   0  0  0  0  0  0  0  0  0  0  0  0
 18 19  1  0  0  0
 19  1  1  0  0  0
  1  2  2  0  0  0
  2  3  1  0  0  0
  3  4  2  0  0  0
  4 20  1  0  0  0
 20 22  1  0  0  0
 22 23  1  0  0  0
 23 24  1  0  0  0
 24 25  1  0  0  0
 25 26  1  0  0  0
 25 27  1  0  0  0
 27 28  1  0  0  0
  4  5  1  0  0  0
  5  6  2  0  0  0
  6  7  1  0  0  0
  7  8  2  0  0  0
  8  9  1  0  0  0
  9 10  2  0  0  0
 10 29  1  0  0  0
 29 30  1  0  0  0
 30 31  1  0  0  0
 31 32  1  0  0  0
 32 33  1  0  0  0
 33 34  1  0  0  0
 34 35  1  0  0  0
 35 36  1  0  0  0
 36 37  1  0  0  0
  6 11  1  0  0  0
 11 12  1  0  0  0
 12 13  1  0  0  0
 13 14  1  0  0  0
 14 15  1  0  0  0
 14 16  1  0  0  0
 16 17  1  0  0  0
 10  1  1  0  0  0
 37 33  1  0  0  0
 17 11  1  0  0  0
  8  3  1  0  0  0
 28 22  1  0  0  0
 20 21  1  0  0  0
M  END
> <minimizedAffinity>
-5.51972

> <CNNscore>
0.2836570442

> <CNNaffinity>
5.5347867012

> <CNN_VS>
1.5699812174

> <CNNaffinity_variance>
0.3086705208

$$$$
[H]c1c(OC([H])([H])C([H])([H])C([H])([H])N2C([H])([H])C([H])([H])C([H])([H])C2([H])[H])c(OC([H])([H])[H])c([H])c2c(N([H])C3([H])C([H])([H])C([H])([H])N(C([H])(C([H])([H])[H])C([H])([H])[H])C([H])([H])C3([H])[H])nc(C3([H])C([H])([H])C([H])([H])C([H])([H])C([H])([H])C3([H])[H])nc12


 38 42  0  0  0  0  0  0  0  0999 V2000
   35.9997  -14.2120   36.5715 C   0  0  0  0  0  0  0  0  0  0  0  0
   36.4833  -15.4577   36.2438 C   0  0  0  0  0  0  0  0  0  0  0  0
   35.6232  -16.4789   35.8500 C   0  0  0  0  0  0  0  0  0  0  0  0
   36.0935  -17.7336   35.5198 C   0  0  0  0  0  0  0  0  0  0  0  0
   35.1766  -18.6577   35.1510 N   0  0  0  0  0  0  0  0  0  0  0  0
   33.8667  -18.4372   35.0868 C   0  0  0  0  0  0  0  0  0  0  0  0
   33.4311  -17.2108   35.4121 N   0  0  0  0  0  0  0  0  0  0  0  0
   34.2618  -16.2416   35.7863 C   0  0  0  0  0  0  0  0  0  0  0  0
   33.7846  -14.9685   36.1232 C   0  0  0  0  0  0  0  0  0  0  0  0
   34.6529  -13.9593   36.5141 C   0  0  0  0  0  0  0  0  0  0  0  0
   32.9461  -19.5086   34.6676 C   0  0  0  0  0  0  0  0  0  0  0  0
   31.5069  -19.1157   34.7268 C   0  0  0  0  0  0  0  0  0  0  0  0
   30.6559  -20.1145   35.4757 C   0  0  0  0  0  0  0  0  0  0  0  0
   30.8721  -21.5282   34.9863 C   0  0  0  0  0  0  0  0  0  0  0  0
   32.3336  -21.8474   34.7957 C   0  0  0  0  0  0  0  0  0  0  0  0
   33.1594  -20.7736   35.5062 C   0  0  0  0  0  0  0  0  0  0  0  0
   38.1221  -13.4654   37.5584 C   0  0  0  0  0  0  0  0  0  0  0  0
   36.8678  -13.2202   36.9564 O   0  0  0  0  0  0  0  0  0  0  0  0
   37.4635  -18.0615   35.5389 N   0  0  0  0  0  0  0  0  0  0  0  0
   38.1800  -17.3555   35.3433 H   0  0  0  0  0  0  0  0  0  0  0  0
   37.8839  -19.4115   35.8356 C   0  0  0  0  0  0  0  0  0  0  0  0
   38.3051  -20.0959   34.5443 C   0  0  0  0  0  0  0  0  0  0  0  0
   39.4801  -21.0302   34.7464 C   0  0  0  0  0  0  0  0  0  0  0  0
   40.6469  -20.3195   35.2278 N   0  0  0  0  0  0  0  0  0  0  0  0
   40.2975  -19.0309   35.7866 C   0  0  0  0  0  0  0  0  0  0  0  0
   39.1280  -19.2733   36.7294 C   0  0  0  0  0  0  0  0  0  0  0  0
   41.6691  -20.2109   34.2080 C   0  0  0  0  0  0  0  0  0  0  0  0
   41.6015  -18.8099   33.6387 C   0  0  0  0  0  0  0  0  0  0  0  0
   41.4281  -21.1779   33.0759 C   0  0  0  0  0  0  0  0  0  0  0  0
   34.1096  -12.7303   36.8314 O   0  0  0  0  0  0  0  0  0  0  0  0
   33.2975  -12.5515   37.9712 C   0  0  0  0  0  0  0  0  0  0  0  0
   32.2761  -11.4665   37.7750 C   0  0  0  0  0  0  0  0  0  0  0  0
   30.8850  -12.0126   37.5958 C   0  0  0  0  0  0  0  0  0  0  0  0
   29.9307  -10.9840   37.2639 N   0  0  0  0  0  0  0  0  0  0  0  0
   30.3577   -9.7673   37.9020 C   0  0  0  0  0  0  0  0  0  0  0  0
   29.2367   -9.2667   38.7515 C   0  0  0  0  0  0  0  0  0  0  0  0
   28.4371  -10.5180   39.0237 C   0  0  0  0  0  0  0  0  0  0  0  0
   28.6213  -11.2997   37.7416 C   0  0  0  0  0  0  0  0  0  0  0  0
 17 18  1  0  0  0
 18  1  1  0  0  0
  1  2  2  0  0  0
  2  3  1  0  0  0
  3  4  2  0  0  0
  4 19  1  0  0  0
 19 21  1  0  0  0
 21 22  1  0  0  0
 22 23  1  0  0  0
 23 24  1  0  0  0
 24 25  1  0  0  0
 25 26  1  0  0  0
 24 27  1  0  0  0
 27 28  1  0  0  0
 27 29  1  0  0  0
  4  5  1  0  0  0
  5  6  2  0  0  0
  6  7  1  0  0  0
  7  8  2  0  0  0
  8  9  1  0  0  0
  9 10  2  0  0  0
 10 30  1  0  0  0
 30 31  1  0  0  0
 31 32  1  0  0  0
 32 33  1  0  0  0
 33 34  1  0  0  0
 34 35  1  0  0  0
 35 36  1  0  0  0
 36 37  1  0  0  0
 37 38  1  0  0  0
  6 11  1  0  0  0
 11 12  1  0  0  0
 12 13  1  0  0  0
 13 14  1  0  0  0
 14 15  1  0  0  0
 15 16  1  0  0  0
 10  1  1  0  0  0
 38 34  1  0  0  0
 16 11  1  0  0  0
  8  3  1  0  0  0
 26 21  1  0  0  0
 19 20  1  0  0  0
M  END
> <minimizedAffinity>
-8.75528

> <CNNscore>
0.7369201779

> <CNNaffinity>
7.4076819420

> <CNN_VS>
5.4588704109

> <CNNaffinity_variance>
0.0489499420

$$$$
[H]c1c(OC([H])([H])C([H])([H])C([H])([H])N2C([H])([H])C([H])([H])C([H])([H])C2([H])[H])c(OC([H])([H])[H])c([H])c2c(N([H])C3([H])C([H])([H])C([H])([H])N(C([H])(C([H])([H])[H])C([H])([H])[H])C([H])([H])C3([H])[H])nc(C3([H])C([H])([H])C([H])([H])C([H])([H])C([H])([H])C3([H])[H])nc12


 38 42  0  0  0  0  0  0  0  0999 V2000
   36.0009  -14.0292   36.6423 C   0  0  0  0  0  0  0  0  0  0  0  0
   36.4662  -15.2713   36.2767 C   0  0  0  0  0  0  0  0  0  0  0  0
   35.5920  -16.2650   35.8453 C   0  0  0  0  0  0  0  0  0  0  0  0
   36.0440  -17.5159   35.4769 C   0  0  0  0  0  0  0  0  0  0  0  0
   35.1145  -18.4124   35.0732 N   0  0  0  0  0  0  0  0  0  0  0  0
   33.8086  -18.1686   35.0093 C   0  0  0  0  0  0  0  0  0  0  0  0
   33.3910  -16.9464   35.3721 N   0  0  0  0  0  0  0  0  0  0  0  0
   34.2351  -16.0036   35.7820 C   0  0  0  0  0  0  0  0  0  0  0  0
   33.7765  -14.7345   36.1578 C   0  0  0  0  0  0  0  0  0  0  0  0
   34.6587  -13.7528   36.5859 C   0  0  0  0  0  0  0  0  0  0  0  0
   32.8734  -19.2105   34.5504 C   0  0  0  0  0  0  0  0  0  0  0  0
   31.4461  -18.9162   34.8751 C   0  0  0  0  0  0  0  0  0  0  0  0
   30.7495  -20.0694   35.5588 C   0  0  0  0  0  0  0  0  0  0  0  0
   30.9392  -21.3718   34.8154 C   0  0  0  0  0  0  0  0  0  0  0  0
   32.3666  -21.5712   34.3716 C   0  0  0  0  0  0  0  0  0  0  0  0
   33.2512  -20.5789   35.1284 C   0  0  0  0  0  0  0  0  0  0  0  0
   38.1842  -13.3443   37.5366 C   0  0  0  0  0  0  0  0  0  0  0  0
   36.8826  -13.0647   37.0640 O   0  0  0  0  0  0  0  0  0  0  0  0
   37.4083  -17.8665   35.4925 N   0  0  0  0  0  0  0  0  0  0  0  0
   37.9941  -17.7530   34.6593 H   0  0  0  0  0  0  0  0  0  0  0  0
   38.0087  -18.3982   36.6943 C   0  0  0  0  0  0  0  0  0  0  0  0
   37.0827  -19.4475   37.2898 C   0  0  0  0  0  0  0  0  0  0  0  0
   37.8449  -20.6006   37.9095 C   0  0  0  0  0  0  0  0  0  0  0  0
   38.6583  -21.2880   36.9277 N   0  0  0  0  0  0  0  0  0  0  0  0
   38.8724  -20.4789   35.7469 C   0  0  0  0  0  0  0  0  0  0  0  0
   39.2976  -19.1033   36.2391 C   0  0  0  0  0  0  0  0  0  0  0  0
   38.1210  -22.5928   36.6027 C   0  0  0  0  0  0  0  0  0  0  0  0
   37.3321  -23.0751   37.8013 C   0  0  0  0  0  0  0  0  0  0  0  0
   39.2175  -23.5950   36.3421 C   0  0  0  0  0  0  0  0  0  0  0  0
   34.1335  -12.5261   36.9403 O   0  0  0  0  0  0  0  0  0  0  0  0
   33.2823  -12.3791   38.0559 C   0  0  0  0  0  0  0  0  0  0  0  0
   32.0565  -11.5723   37.7314 C   0  0  0  0  0  0  0  0  0  0  0  0
   30.7829  -12.3173   38.0286 C   0  0  0  0  0  0  0  0  0  0  0  0
   29.8728  -11.5462   38.8385 N   0  0  0  0  0  0  0  0  0  0  0  0
   29.0509  -12.4695   39.5745 C   0  0  0  0  0  0  0  0  0  0  0  0
   27.6205  -12.1593   39.2802 C   0  0  0  0  0  0  0  0  0  0  0  0
   27.6964  -11.4622   37.9433 C   0  0  0  0  0  0  0  0  0  0  0  0
   29.0152  -10.7272   38.0410 C   0  0  0  0  0  0  0  0  0  0  0  0
 17 18  1  0  0  0
 18  1  1  0  0  0
  1  2  2  0  0  0
  2  3  1  0  0  0
  3  4  2  0  0  0
  4 19  1  0  0  0
 19 21  1  0  0  0
 21 22  1  0  0  0
 22 23  1  0  0  0
 23 24  1  0  0  0
 24 25  1  0  0  0
 25 26  1  0  0  0
 24 27  1  0  0  0
 27 28  1  0  0  0
 27 29  1  0  0  0
  4  5  1  0  0  0
  5  6  2  0  0  0
  6  7  1  0  0  0
  7  8  2  0  0  0
  8  9  1  0  0  0
  9 10  2  0  0  0
 10 30  1  0  0  0
 30 31  1  0  0  0
 31 32  1  0  0  0
 32 33  1  0  0  0
 33 34  1  0  0  0
 34 35  1  0  0  0
 35 36  1  0  0  0
 36 37  1  0  0  0
 37 38  1  0  0  0
  6 11  1  0  0  0
 11 12  1  0  0  0
 12 13  1  0  0  0
 13 14  1  0  0  0
 14 15  1  0  0  0
 15 16  1  0  0  0
 10  1  1  0  0  0
 38 34  1  0  0  0
 16 11  1  0  0  0
  8  3  1  0  0  0
 26 21  1  0  0  0
 19 20  1  0  0  0
M  END
> <minimizedAffinity>
-7.96777

> <CNNscore>
0.5654900670

> <CNNaffinity>
7.1874017715

> <CNN_VS>
4.0644044876

> <CNNaffinity_variance>
0.0840351954

$$$$
[H]c1c(OC([H])([H])C([H])([H])C([H])([H])N2C([H])([H])C([H])([H])C([H])([H])C2([H])[H])c(OC([H])([H])[H])c([H])c2c(N([H])C3([H])C([H])([H])C([H])([H])N(C([H])(C([H])([H])[H])C([H])([H])[H])C([H])([H])C3([H])[H])nc(C3([H])C([H])([H])C([H])([H])C([H])([H])C([H])([H])C3([H])[H])nc12


 38 42  0  0  0  0  0  0  0  0999 V2000
   36.1261  -14.1698   36.5990 C   0  0  0  0  0  0  0  0  0  0  0  0
   36.5823  -15.4258   36.2711 C   0  0  0  0  0  0  0  0  0  0  0  0
   35.7015  -16.4956   36.1387 C   0  0  0  0  0  0  0  0  0  0  0  0
   36.1446  -17.7611   35.8119 C   0  0  0  0  0  0  0  0  0  0  0  0
   35.2095  -18.7335   35.7083 N   0  0  0  0  0  0  0  0  0  0  0  0
   33.9061  -18.5502   35.8989 C   0  0  0  0  0  0  0  0  0  0  0  0
   33.4972  -17.3125   36.2159 N   0  0  0  0  0  0  0  0  0  0  0  0
   34.3472  -16.2968   36.3390 C   0  0  0  0  0  0  0  0  0  0  0  0
   33.8981  -15.0127   36.6725 C   0  0  0  0  0  0  0  0  0  0  0  0
   34.7867  -13.9549   36.8013 C   0  0  0  0  0  0  0  0  0  0  0  0
   32.9630  -19.6735   35.7577 C   0  0  0  0  0  0  0  0  0  0  0  0
   33.4608  -20.7619   34.8651 C   0  0  0  0  0  0  0  0  0  0  0  0
   32.4582  -21.1575   33.8062 C   0  0  0  0  0  0  0  0  0  0  0  0
   31.0928  -21.4384   34.3905 C   0  0  0  0  0  0  0  0  0  0  0  0
   30.6804  -20.3970   35.4002 C   0  0  0  0  0  0  0  0  0  0  0  0
   31.6021  -19.1855   35.2489 C   0  0  0  0  0  0  0  0  0  0  0  0
   38.2347  -13.2205   37.4287 C   0  0  0  0  0  0  0  0  0  0  0  0
   37.0141  -13.1298   36.7233 O   0  0  0  0  0  0  0  0  0  0  0  0
   37.5018  -18.0534   35.5729 N   0  0  0  0  0  0  0  0  0  0  0  0
   38.0978  -17.4083   35.0449 H   0  0  0  0  0  0  0  0  0  0  0  0
   38.0802  -19.2798   36.0717 C   0  0  0  0  0  0  0  0  0  0  0  0
   38.3957  -20.1938   34.8977 C   0  0  0  0  0  0  0  0  0  0  0  0
   39.6686  -20.9863   35.1128 C   0  0  0  0  0  0  0  0  0  0  0  0
   40.8159  -20.1158   35.2688 N   0  0  0  0  0  0  0  0  0  0  0  0
   40.4221  -18.7633   35.6011 C   0  0  0  0  0  0  0  0  0  0  0  0
   39.4094  -18.8753   36.7313 C   0  0  0  0  0  0  0  0  0  0  0  0
   41.6858  -20.1603   34.1120 C   0  0  0  0  0  0  0  0  0  0  0  0
   41.6735  -18.7865   33.4763 C   0  0  0  0  0  0  0  0  0  0  0  0
   41.1907  -21.1459   33.0833 C   0  0  0  0  0  0  0  0  0  0  0  0
   34.2707  -12.7178   37.1324 O   0  0  0  0  0  0  0  0  0  0  0  0
   33.1759  -12.5833   38.0121 C   0  0  0  0  0  0  0  0  0  0  0  0
   32.9021  -11.1473   38.3612 C   0  0  0  0  0  0  0  0  0  0  0  0
   32.8819  -10.2551   37.1492 C   0  0  0  0  0  0  0  0  0  0  0  0
   33.8562   -9.1957   37.2319 N   0  0  0  0  0  0  0  0  0  0  0  0
   33.4479   -8.1529   36.3287 C   0  0  0  0  0  0  0  0  0  0  0  0
   34.5732   -7.8846   35.3850 C   0  0  0  0  0  0  0  0  0  0  0  0
   35.3487   -9.1796   35.4105 C   0  0  0  0  0  0  0  0  0  0  0  0
   35.1572   -9.6383   36.8395 C   0  0  0  0  0  0  0  0  0  0  0  0
 17 18  1  0  0  0
 18  1  1  0  0  0
  1  2  2  0  0  0
  2  3  1  0  0  0
  3  4  2  0  0  0
  4 19  1  0  0  0
 19 21  1  0  0  0
 21 22  1  0  0  0
 22 23  1  0  0  0
 23 24  1  0  0  0
 24 25  1  0  0  0
 25 26  1  0  0  0
 24 27  1  0  0  0
 27 28  1  0  0  0
 27 29  1  0  0  0
  4  5  1  0  0  0
  5  6  2  0  0  0
  6  7  1  0  0  0
  7  8  2  0  0  0
  8  9  1  0  0  0
  9 10  2  0  0  0
 10 30  1  0  0  0
 30 31  1  0  0  0
 31 32  1  0  0  0
 32 33  1  0  0  0
 33 34  1  0  0  0
 34 35  1  0  0  0
 35 36  1  0  0  0
 36 37  1  0  0  0
 37 38  1  0  0  0
  6 11  1  0  0  0
 11 12  1  0  0  0
 12 13  1  0  0  0
 13 14  1  0  0  0
 14 15  1  0  0  0
 15 16  1  0  0  0
 10  1  1  0  0  0
 38 34  1  0  0  0
 16 11  1  0  0  0
  8  3  1  0  0  0
 26 21  1  0  0  0
 19 20  1  0  0  0
M  END
> <minimizedAffinity>
-5.75678

> <CNNscore>
0.5602526069

> <CNNaffinity>
7.3497362137

> <CNN_VS>
4.1177086830

> <CNNaffinity_variance>
0.1003052965

$$$$
[H]c1c(OC([H])([H])C([H])([H])C([H])([H])N2C([H])([H])C([H])([H])C([H])([H])C2([H])[H])c(OC([H])([H])[H])c([H])c2c(N([H])C3([H])C([H])([H])C([H])([H])N(C([H])(C([H])([H])[H])C([H])([H])[H])C([H])([H])C3([H])[H])nc(C3([H])C([H])([H])C([H])([H])C([H])([H])C([H])([H])C3([H])[H])nc12


 38 42  0  0  0  0  0  0  0  0999 V2000
   36.5946  -22.3157   37.1736 C   0  0  0  0  0  0  0  0  0  0  0  0
   37.4406  -21.3374   36.7045 C   0  0  0  0  0  0  0  0  0  0  0  0
   37.1475  -19.9889   36.8881 C   0  0  0  0  0  0  0  0  0  0  0  0
   37.9856  -18.9966   36.4218 C   0  0  0  0  0  0  0  0  0  0  0  0
   37.6110  -17.7166   36.6496 N   0  0  0  0  0  0  0  0  0  0  0  0
   36.5001  -17.3574   37.2865 C   0  0  0  0  0  0  0  0  0  0  0  0
   35.6998  -18.3379   37.7312 N   0  0  0  0  0  0  0  0  0  0  0  0
   35.9898  -19.6236   37.5513 C   0  0  0  0  0  0  0  0  0  0  0  0
   35.1385  -20.6310   38.0228 C   0  0  0  0  0  0  0  0  0  0  0  0
   35.4425  -21.9715   37.8332 C   0  0  0  0  0  0  0  0  0  0  0  0
   36.1806  -15.9337   37.4909 C   0  0  0  0  0  0  0  0  0  0  0  0
   35.1306  -15.4186   36.5629 C   0  0  0  0  0  0  0  0  0  0  0  0
   35.5404  -14.1447   35.8615 C   0  0  0  0  0  0  0  0  0  0  0  0
   36.0511  -13.1007   36.8279 C   0  0  0  0  0  0  0  0  0  0  0  0
   36.9987  -13.6829   37.8465 C   0  0  0  0  0  0  0  0  0  0  0  0
   37.4376  -15.0662   37.3629 C   0  0  0  0  0  0  0  0  0  0  0  0
   38.0443  -24.0828   36.2727 C   0  0  0  0  0  0  0  0  0  0  0  0
   36.9054  -23.6393   36.9811 O   0  0  0  0  0  0  0  0  0  0  0  0
   39.1931  -19.2740   35.7513 N   0  0  0  0  0  0  0  0  0  0  0  0
   39.1966  -19.7203   34.8288 H   0  0  0  0  0  0  0  0  0  0  0  0
   40.4580  -18.9318   36.3600 C   0  0  0  0  0  0  0  0  0  0  0  0
   41.0140  -20.1556   37.0715 C   0  0  0  0  0  0  0  0  0  0  0  0
   42.5227  -20.2437   36.9685 C   0  0  0  0  0  0  0  0  0  0  0  0
   42.9557  -20.3446   35.5899 N   0  0  0  0  0  0  0  0  0  0  0  0
   41.9225  -19.9182   34.6704 C   0  0  0  0  0  0  0  0  0  0  0  0
   41.4015  -18.5883   35.1950 C   0  0  0  0  0  0  0  0  0  0  0  0
   43.4494  -21.6694   35.2769 C   0  0  0  0  0  0  0  0  0  0  0  0
   42.3636  -22.3938   34.5103 C   0  0  0  0  0  0  0  0  0  0  0  0
   43.7364  -22.4638   36.5264 C   0  0  0  0  0  0  0  0  0  0  0  0
   34.5557  -22.9082   38.3256 O   0  0  0  0  0  0  0  0  0  0  0  0
   33.4734  -23.3810   37.5537 C   0  0  0  0  0  0  0  0  0  0  0  0
   32.1946  -22.6558   37.8661 C   0  0  0  0  0  0  0  0  0  0  0  0
   30.9933  -23.5611   37.8148 C   0  0  0  0  0  0  0  0  0  0  0  0
   31.0328  -24.4613   36.6892 N   0  0  0  0  0  0  0  0  0  0  0  0
   30.2585  -23.8723   35.6293 C   0  0  0  0  0  0  0  0  0  0  0  0
   29.2088  -24.8509   35.2177 C   0  0  0  0  0  0  0  0  0  0  0  0
   29.0528  -25.7127   36.4473 C   0  0  0  0  0  0  0  0  0  0  0  0
   30.4593  -25.7318   37.0044 C   0  0  0  0  0  0  0  0  0  0  0  0
 17 18  1  0  0  0
 18  1  1  0  0  0
  1  2  2  0  0  0
  2  3  1  0  0  0
  3  4  2  0  0  0
  4 19  1  0  0  0
 19 21  1  0  0  0
 21 22  1  0  0  0
 22 23  1  0  0  0
 23 24  1  0  0  0
 24 25  1  0  0  0
 25 26  1  0  0  0
 24 27  1  0  0  0
 27 28  1  0  0  0
 27 29  1  0  0  0
  4  5  1  0  0  0
  5  6  2  0  0  0
  6  7  1  0  0  0
  7  8  2  0  0  0
  8  9  1  0  0  0
  9 10  2  0  0  0
 10 30  1  0  0  0
 30 31  1  0  0  0
 31 32  1  0  0  0
 32 33  1  0  0  0
 33 34  1  0  0  0
 34 35  1  0  0  0
 35 36  1  0  0  0
 36 37  1  0  0  0
 37 38  1  0  0  0
  6 11  1  0  0  0
 11 12  1  0  0  0
 12 13  1  0  0  0
 13 14  1  0  0  0
 14 15  1  0  0  0
 15 16  1  0  0  0
 10  1  1  0  0  0
 38 34  1  0  0  0
 16 11  1  0  0  0
  8  3  1  0  0  0
 26 21  1  0  0  0
 19 20  1  0  0  0
M  END
> <minimizedAffinity>
-5.22996

> <CNNscore>
0.3508556187

> <CNNaffinity>
6.0519852638

> <CNN_VS>
2.1233730316

> <CNNaffinity_variance>
0.2203888893

$$$$
[H]c1c(OC([H])([H])C([H])([H])C([H])([H])N2C([H])([H])C([H])([H])C([H])([H])C2([H])[H])c(OC([H])([H])[H])c([H])c2c(N([H])C3([H])C([H])([H])C([H])([H])N(C([H])(C([H])([H])[H])C([H])([H])[H])C([H])([H])C3([H])[H])nc(C3([H])C([H])([H])C([H])([H])C([H])([H])C([H])([H])C3([H])[H])nc12


 38 42  0  0  0  0  0  0  0  0999 V2000
   41.5329  -18.9250   36.5414 C   0  0  0  0  0  0  0  0  0  0  0  0
   40.2429  -18.4518   36.4718 C   0  0  0  0  0  0  0  0  0  0  0  0
   39.1821  -19.1847   36.9966 C   0  0  0  0  0  0  0  0  0  0  0  0
   37.8828  -18.7236   36.9328 C   0  0  0  0  0  0  0  0  0  0  0  0
   36.9228  -19.5107   37.4707 N   0  0  0  0  0  0  0  0  0  0  0  0
   37.1480  -20.6864   38.0502 C   0  0  0  0  0  0  0  0  0  0  0  0
   38.4180  -21.1156   38.1012 N   0  0  0  0  0  0  0  0  0  0  0  0
   39.4246  -20.4068   37.5974 C   0  0  0  0  0  0  0  0  0  0  0  0
   40.7432  -20.8754   37.6604 C   0  0  0  0  0  0  0  0  0  0  0  0
   41.7915  -20.1348   37.1334 C   0  0  0  0  0  0  0  0  0  0  0  0
   36.0343  -21.4698   38.6132 C   0  0  0  0  0  0  0  0  0  0  0  0
   35.1574  -22.0905   37.5764 C   0  0  0  0  0  0  0  0  0  0  0  0
   33.6905  -21.8078   37.8024 C   0  0  0  0  0  0  0  0  0  0  0  0
   33.2608  -22.1213   39.2172 C   0  0  0  0  0  0  0  0  0  0  0  0
   34.2448  -21.6078   40.2381 C   0  0  0  0  0  0  0  0  0  0  0  0
   35.1785  -20.6103   39.5501 C   0  0  0  0  0  0  0  0  0  0  0  0
   43.1572  -17.0870   36.6804 C   0  0  0  0  0  0  0  0  0  0  0  0
   42.5631  -18.1838   36.0172 O   0  0  0  0  0  0  0  0  0  0  0  0
   37.5433  -17.4840   36.3559 N   0  0  0  0  0  0  0  0  0  0  0  0
   37.7134  -16.6040   36.8527 H   0  0  0  0  0  0  0  0  0  0  0  0
   36.9428  -17.4333   35.0428 C   0  0  0  0  0  0  0  0  0  0  0  0
   36.5264  -18.8373   34.6323 C   0  0  0  0  0  0  0  0  0  0  0  0
   35.2355  -18.8448   33.8398 C   0  0  0  0  0  0  0  0  0  0  0  0
   34.1353  -18.3051   34.6122 N   0  0  0  0  0  0  0  0  0  0  0  0
   34.6021  -17.5262   35.7392 C   0  0  0  0  0  0  0  0  0  0  0  0
   35.6693  -16.5853   35.1997 C   0  0  0  0  0  0  0  0  0  0  0  0
   33.2027  -19.3375   35.0135 C   0  0  0  0  0  0  0  0  0  0  0  0
   33.0226  -20.2745   33.8383 C   0  0  0  0  0  0  0  0  0  0  0  0
   31.8504  -18.7621   35.3525 C   0  0  0  0  0  0  0  0  0  0  0  0
   43.0642  -20.6609   37.2321 O   0  0  0  0  0  0  0  0  0  0  0  0
   43.4205  -21.8641   36.5872 C   0  0  0  0  0  0  0  0  0  0  0  0
   43.1621  -21.8123   35.1075 C   0  0  0  0  0  0  0  0  0  0  0  0
   42.3988  -23.0125   34.6151 C   0  0  0  0  0  0  0  0  0  0  0  0
   41.4331  -22.6699   33.6009 N   0  0  0  0  0  0  0  0  0  0  0  0
   41.2411  -21.2446   33.6419 C   0  0  0  0  0  0  0  0  0  0  0  0
   39.7855  -20.9744   33.8347 C   0  0  0  0  0  0  0  0  0  0  0  0
   39.2910  -22.2455   34.4819 C   0  0  0  0  0  0  0  0  0  0  0  0
   40.1698  -23.2948   33.8372 C   0  0  0  0  0  0  0  0  0  0  0  0
 17 18  1  0  0  0
 18  1  1  0  0  0
  1  2  2  0  0  0
  2  3  1  0  0  0
  3  4  2  0  0  0
  4 19  1  0  0  0
 19 21  1  0  0  0
 21 22  1  0  0  0
 22 23  1  0  0  0
 23 24  1  0  0  0
 24 25  1  0  0  0
 25 26  1  0  0  0
 24 27  1  0  0  0
 27 28  1  0  0  0
 27 29  1  0  0  0
  4  5  1  0  0  0
  5  6  2  0  0  0
  6  7  1  0  0  0
  7  8  2  0  0  0
  8  9  1  0  0  0
  9 10  2  0  0  0
 10 30  1  0  0  0
 30 31  1  0  0  0
 31 32  1  0  0  0
 32 33  1  0  0  0
 33 34  1  0  0  0
 34 35  1  0  0  0
 35 36  1  0  0  0
 36 37  1  0  0  0
 37 38  1  0  0  0
  6 11  1  0  0  0
 11 12  1  0  0  0
 12 13  1  0  0  0
 13 14  1  0  0  0
 14 15  1  0  0  0
 15 16  1  0  0  0
 10  1  1  0  0  0
 38 34  1  0  0  0
 16 11  1  0  0  0
  8  3  1  0  0  0
 26 21  1  0  0  0
 19 20  1  0  0  0
M  END
> <minimizedAffinity>
-5.15845

> <CNNscore>
0.2121639103

> <CNNaffinity>
5.9438619614

> <CNN_VS>
1.2610729933

> <CNNaffinity_variance>
0.5299218297

$$$$
[H]c1c(OC([H])([H])C([H])([H])C([H])([H])N2C([H])([H])C([H])([H])C([H])([H])C2([H])[H])c(OC([H])([H])[H])c([H])c2c(N([H])C3([H])C([H])([H])C([H])([H])N(C([H])(C([H])([H])[H])C([H])([H])[H])C([H])([H])C3([H])[H])nc(C3([H])C([H])([H])C([H])([H])C([H])([H])C([H])([H])C3([H])[H])nc12


 38 42  0  0  0  0  0  0  0  0999 V2000
   37.2131  -22.6842   36.9834 C   0  0  0  0  0  0  0  0  0  0  0  0
   36.0140  -22.0097   36.9894 C   0  0  0  0  0  0  0  0  0  0  0  0
   35.9733  -20.6225   37.0991 C   0  0  0  0  0  0  0  0  0  0  0  0
   34.7782  -19.9325   37.1080 C   0  0  0  0  0  0  0  0  0  0  0  0
   34.8453  -18.5858   37.2200 N   0  0  0  0  0  0  0  0  0  0  0  0
   35.9757  -17.8924   37.3207 C   0  0  0  0  0  0  0  0  0  0  0  0
   37.1258  -18.5830   37.3101 N   0  0  0  0  0  0  0  0  0  0  0  0
   37.1535  -19.9087   37.2039 C   0  0  0  0  0  0  0  0  0  0  0  0
   38.3663  -20.6095   37.1966 C   0  0  0  0  0  0  0  0  0  0  0  0
   38.3928  -21.9924   37.0866 C   0  0  0  0  0  0  0  0  0  0  0  0
   35.9463  -16.4236   37.4332 C   0  0  0  0  0  0  0  0  0  0  0  0
   35.0443  -15.7671   36.4410 C   0  0  0  0  0  0  0  0  0  0  0  0
   35.7198  -14.6476   35.6840 C   0  0  0  0  0  0  0  0  0  0  0  0
   36.4085  -13.6692   36.6077 C   0  0  0  0  0  0  0  0  0  0  0  0
   37.1945  -14.3651   37.6903 C   0  0  0  0  0  0  0  0  0  0  0  0
   37.3556  -15.8357   37.3013 C   0  0  0  0  0  0  0  0  0  0  0  0
   36.0637  -24.8530   36.8764 C   0  0  0  0  0  0  0  0  0  0  0  0
   37.2280  -24.0529   36.8734 O   0  0  0  0  0  0  0  0  0  0  0  0
   33.5292  -20.5732   36.9889 N   0  0  0  0  0  0  0  0  0  0  0  0
   32.8850  -20.6305   37.7838 H   0  0  0  0  0  0  0  0  0  0  0  0
   33.1335  -21.1669   35.7325 C   0  0  0  0  0  0  0  0  0  0  0  0
   32.3615  -22.4477   36.0096 C   0  0  0  0  0  0  0  0  0  0  0  0
   31.2336  -22.6634   35.0217 C   0  0  0  0  0  0  0  0  0  0  0  0
   30.2661  -21.5868   35.0772 N   0  0  0  0  0  0  0  0  0  0  0  0
   30.8101  -20.4091   35.7190 C   0  0  0  0  0  0  0  0  0  0  0  0
   32.1694  -20.1607   35.0818 C   0  0  0  0  0  0  0  0  0  0  0  0
   29.0227  -22.0121   35.6853 C   0  0  0  0  0  0  0  0  0  0  0  0
   29.0362  -21.5508   37.1270 C   0  0  0  0  0  0  0  0  0  0  0  0
   28.8909  -23.5145   35.6858 C   0  0  0  0  0  0  0  0  0  0  0  0
   39.6256  -22.6143   37.0867 O   0  0  0  0  0  0  0  0  0  0  0  0
   40.8197  -21.8916   36.8808 C   0  0  0  0  0  0  0  0  0  0  0  0
   41.9702  -22.4635   37.6608 C   0  0  0  0  0  0  0  0  0  0  0  0
   42.6178  -21.4449   38.5598 C   0  0  0  0  0  0  0  0  0  0  0  0
   41.6544  -20.7209   39.3514 N   0  0  0  0  0  0  0  0  0  0  0  0
   42.1102  -19.3607   39.4607 C   0  0  0  0  0  0  0  0  0  0  0  0
   42.2082  -19.0155   40.9099 C   0  0  0  0  0  0  0  0  0  0  0  0
   42.3708  -20.3653   41.5662 C   0  0  0  0  0  0  0  0  0  0  0  0
   41.5397  -21.2578   40.6709 C   0  0  0  0  0  0  0  0  0  0  0  0
 17 18  1  0  0  0
 18  1  1  0  0  0
  1  2  2  0  0  0
  2  3  1  0  0  0
  3  4  2  0  0  0
  4 19  1  0  0  0
 19 21  1  0  0  0
 21 22  1  0  0  0
 22 23  1  0  0  0
 23 24  1  0  0  0
 24 25  1  0  0  0
 25 26  1  0  0  0
 24 27  1  0  0  0
 27 28  1  0  0  0
 27 29  1  0  0  0
  4  5  1  0  0  0
  5  6  2  0  0  0
  6  7  1  0  0  0
  7  8  2  0  0  0
  8  9  1  0  0  0
  9 10  2  0  0  0
 10 30  1  0  0  0
 30 31  1  0  0  0
 31 32  1  0  0  0
 32 33  1  0  0  0
 33 34  1  0  0  0
 34 35  1  0  0  0
 35 36  1  0  0  0
 36 37  1  0  0  0
 37 38  1  0  0  0
  6 11  1  0  0  0
 11 12  1  0  0  0
 12 13  1  0  0  0
 13 14  1  0  0  0
 14 15  1  0  0  0
 15 16  1  0  0  0
 10  1  1  0  0  0
 38 34  1  0  0  0
 16 11  1  0  0  0
  8  3  1  0  0  0
 26 21  1  0  0  0
 19 20  1  0  0  0
M  END
> <minimizedAffinity>
-5.28658

> <CNNscore>
0.1888312846

> <CNNaffinity>
5.9461545944

> <CNN_VS>
1.1228200197

> <CNNaffinity_variance>
0.0293400642

$$$$
[H]c1c(OC([H])([H])C([H])([H])C([H])([H])N2C([H])([H])C([H])([H])C([H])([H])C2([H])[H])c(OC([H])([H])[H])c([H])c2c(N([H])C3([H])C([H])([H])C([H])([H])N(C([H])(C([H])([H])[H])C([H])([H])[H])C([H])([H])C3([H])[H])nc(C3([H])C([H])([H])C([H])([H])C([H])([H])C([H])([H])C3([H])[H])nc12


 38 42  0  0  0  0  0  0  0  0999 V2000
   36.0332  -18.4306   36.9014 C   0  0  0  0  0  0  0  0  0  0  0  0
   36.1312  -19.3087   37.9561 C   0  0  0  0  0  0  0  0  0  0  0  0
   35.1723  -20.2980   38.1556 C   0  0  0  0  0  0  0  0  0  0  0  0
   35.2565  -21.1848   39.2097 C   0  0  0  0  0  0  0  0  0  0  0  0
   34.2739  -22.1087   39.3173 N   0  0  0  0  0  0  0  0  0  0  0  0
   33.2443  -22.2160   38.4824 C   0  0  0  0  0  0  0  0  0  0  0  0
   33.1819  -21.3439   37.4649 N   0  0  0  0  0  0  0  0  0  0  0  0
   34.1042  -20.4027   37.2828 C   0  0  0  0  0  0  0  0  0  0  0  0
   34.0181  -19.5014   36.2141 C   0  0  0  0  0  0  0  0  0  0  0  0
   34.9808  -18.5199   36.0266 C   0  0  0  0  0  0  0  0  0  0  0  0
   32.2249  -23.2614   38.6801 C   0  0  0  0  0  0  0  0  0  0  0  0
   31.0667  -23.1500   37.7447 C   0  0  0  0  0  0  0  0  0  0  0  0
   29.7332  -23.1881   38.4540 C   0  0  0  0  0  0  0  0  0  0  0  0
   29.6262  -24.3587   39.4043 C   0  0  0  0  0  0  0  0  0  0  0  0
   30.8732  -24.5343   40.2339 C   0  0  0  0  0  0  0  0  0  0  0  0
   31.7104  -23.2587   40.1239 C   0  0  0  0  0  0  0  0  0  0  0  0
   36.9400  -16.1878   37.3295 C   0  0  0  0  0  0  0  0  0  0  0  0
   36.9918  -17.4634   36.7248 O   0  0  0  0  0  0  0  0  0  0  0  0
   36.3165  -21.1648   40.1374 N   0  0  0  0  0  0  0  0  0  0  0  0
   36.4818  -20.3493   40.7356 H   0  0  0  0  0  0  0  0  0  0  0  0
   37.1966  -22.3040   40.2604 C   0  0  0  0  0  0  0  0  0  0  0  0
   37.7090  -22.6871   38.8807 C   0  0  0  0  0  0  0  0  0  0  0  0
   39.1452  -23.1675   38.9145 C   0  0  0  0  0  0  0  0  0  0  0  0
   40.0378  -22.1384   39.4071 N   0  0  0  0  0  0  0  0  0  0  0  0
   39.3213  -21.1042   40.1225 C   0  0  0  0  0  0  0  0  0  0  0  0
   38.3934  -21.8174   41.0950 C   0  0  0  0  0  0  0  0  0  0  0  0
   40.8666  -21.5950   38.3514 C   0  0  0  0  0  0  0  0  0  0  0  0
   40.2871  -20.2528   37.9587 C   0  0  0  0  0  0  0  0  0  0  0  0
   40.8537  -22.4757   37.1271 C   0  0  0  0  0  0  0  0  0  0  0  0
   34.8293  -17.6672   34.9513 O   0  0  0  0  0  0  0  0  0  0  0  0
   33.8153  -16.6867   34.9206 C   0  0  0  0  0  0  0  0  0  0  0  0
   33.6959  -15.9535   36.2272 C   0  0  0  0  0  0  0  0  0  0  0  0
   33.7211  -14.4588   36.0517 C   0  0  0  0  0  0  0  0  0  0  0  0
   33.9538  -13.7647   37.2938 N   0  0  0  0  0  0  0  0  0  0  0  0
   32.7933  -12.9609   37.5710 C   0  0  0  0  0  0  0  0  0  0  0  0
   33.2357  -11.5458   37.7461 C   0  0  0  0  0  0  0  0  0  0  0  0
   34.5385  -11.5048   36.9845 C   0  0  0  0  0  0  0  0  0  0  0  0
   35.0860  -12.8964   37.2133 C   0  0  0  0  0  0  0  0  0  0  0  0
 17 18  1  0  0  0
 18  1  1  0  0  0
  1  2  2  0  0  0
  2  3  1  0  0  0
  3  4  2  0  0  0
  4 19  1  0  0  0
 19 21  1  0  0  0
 21 22  1  0  0  0
 22 23  1  0  0  0
 23 24  1  0  0  0
 24 25  1  0  0  0
 25 26  1  0  0  0
 24 27  1  0  0  0
 27 28  1  0  0  0
 27 29  1  0  0  0
  4  5  1  0  0  0
  5  6  2  0  0  0
  6  7  1  0  0  0
  7  8  2  0  0  0
  8  9  1  0  0  0
  9 10  2  0  0  0
 10 30  1  0  0  0
 30 31  1  0  0  0
 31 32  1  0  0  0
 32 33  1  0  0  0
 33 34  1  0  0  0
 34 35  1  0  0  0
 35 36  1  0  0  0
 36 37  1  0  0  0
 37 38  1  0  0  0
  6 11  1  0  0  0
 11 12  1  0  0  0
 12 13  1  0  0  0
 13 14  1  0  0  0
 14 15  1  0  0  0
 15 16  1  0  0  0
 10  1  1  0  0  0
 38 34  1  0  0  0
 16 11  1  0  0  0
  8  3  1  0  0  0
 26 21  1  0  0  0
 19 20  1  0  0  0
M  END
> <minimizedAffinity>
-4.82055

> <CNNscore>
0.1785473228

> <CNNaffinity>
5.7337875366

> <CNN_VS>
1.0237524509

> <CNNaffinity_variance>
0.0880093277

$$$$
[H]c1c(OC([H])([H])C([H])([H])C([H])([H])N2C([H])([H])C([H])([H])C([H])([H])C2([H])[H])c(OC([H])([H])[H])c([H])c2c(N([H])C3([H])C([H])([H])C([H])([H])N(C([H])(C([H])([H])[H])C([H])([H])[H])C([H])([H])C3([H])[H])nc(C3([H])C([H])([H])C([H])([H])C([H])([H])C([H])([H])C3([H])[H])nc12


 38 42  0  0  0  0  0  0  0  0999 V2000
   37.6312  -19.6439   35.5872 C   0  0  0  0  0  0  0  0  0  0  0  0
   36.3707  -19.3260   35.1368 C   0  0  0  0  0  0  0  0  0  0  0  0
   35.7918  -18.0963   35.4379 C   0  0  0  0  0  0  0  0  0  0  0  0
   34.5278  -17.7640   34.9944 C   0  0  0  0  0  0  0  0  0  0  0  0
   34.0539  -16.5452   35.3417 N   0  0  0  0  0  0  0  0  0  0  0  0
   34.7199  -15.6573   36.0743 C   0  0  0  0  0  0  0  0  0  0  0  0
   35.9466  -16.0008   36.4949 N   0  0  0  0  0  0  0  0  0  0  0  0
   36.4910  -17.1783   36.2007 C   0  0  0  0  0  0  0  0  0  0  0  0
   37.7731  -17.5166   36.6522 C   0  0  0  0  0  0  0  0  0  0  0  0
   38.3386  -18.7458   36.3448 C   0  0  0  0  0  0  0  0  0  0  0  0
   34.1199  -14.3506   36.3964 C   0  0  0  0  0  0  0  0  0  0  0  0
   34.7649  -13.2066   35.6863 C   0  0  0  0  0  0  0  0  0  0  0  0
   35.1510  -12.0805   36.6167 C   0  0  0  0  0  0  0  0  0  0  0  0
   34.0068  -11.6626   37.5116 C   0  0  0  0  0  0  0  0  0  0  0  0
   33.2814  -12.8472   38.0988 C   0  0  0  0  0  0  0  0  0  0  0  0
   34.1516  -14.0905   37.9065 C   0  0  0  0  0  0  0  0  0  0  0  0
   39.0080  -21.0874   34.1530 C   0  0  0  0  0  0  0  0  0  0  0  0
   38.1818  -20.8630   35.2767 O   0  0  0  0  0  0  0  0  0  0  0  0
   33.7497  -18.6276   34.1986 N   0  0  0  0  0  0  0  0  0  0  0  0
   34.0875  -18.9586   33.2895 H   0  0  0  0  0  0  0  0  0  0  0  0
   32.4500  -19.0632   34.6550 C   0  0  0  0  0  0  0  0  0  0  0  0
   32.0520  -20.3194   33.8956 C   0  0  0  0  0  0  0  0  0  0  0  0
   31.2881  -21.2976   34.7639 C   0  0  0  0  0  0  0  0  0  0  0  0
   32.0831  -21.7400   35.8911 N   0  0  0  0  0  0  0  0  0  0  0  0
   33.1978  -20.8519   36.1430 C   0  0  0  0  0  0  0  0  0  0  0  0
   32.6328  -19.4391   36.1352 C   0  0  0  0  0  0  0  0  0  0  0  0
   32.5072  -23.1165   35.7426 C   0  0  0  0  0  0  0  0  0  0  0  0
   31.2746  -23.9893   35.8438 C   0  0  0  0  0  0  0  0  0  0  0  0
   33.4518  -23.5277   36.8442 C   0  0  0  0  0  0  0  0  0  0  0  0
   39.6061  -19.0089   36.8249 O   0  0  0  0  0  0  0  0  0  0  0  0
   39.8910  -20.1772   37.5628 C   0  0  0  0  0  0  0  0  0  0  0  0
   38.9148  -20.3910   38.6854 C   0  0  0  0  0  0  0  0  0  0  0  0
   38.4054  -21.8061   38.7424 C   0  0  0  0  0  0  0  0  0  0  0  0
   37.0151  -21.9038   38.3730 N   0  0  0  0  0  0  0  0  0  0  0  0
   36.3695  -20.6803   38.7682 C   0  0  0  0  0  0  0  0  0  0  0  0
   35.2204  -21.0241   39.6572 C   0  0  0  0  0  0  0  0  0  0  0  0
   35.6119  -22.3755   40.2043 C   0  0  0  0  0  0  0  0  0  0  0  0
   36.3626  -22.9856   39.0410 C   0  0  0  0  0  0  0  0  0  0  0  0
 17 18  1  0  0  0
 18  1  1  0  0  0
  1  2  2  0  0  0
  2  3  1  0  0  0
  3  4  2  0  0  0
  4 19  1  0  0  0
 19 21  1  0  0  0
 21 22  1  0  0  0
 22 23  1  0  0  0
 23 24  1  0  0  0
 24 25  1  0  0  0
 25 26  1  0  0  0
 24 27  1  0  0  0
 27 28  1  0  0  0
 27 29  1  0  0  0
  4  5  1  0  0  0
  5  6  2  0  0  0
  6  7  1  0  0  0
  7  8  2  0  0  0
  8  9  1  0  0  0
  9 10  2  0  0  0
 10 30  1  0  0  0
 30 31  1  0  0  0
 31 32  1  0  0  0
 32 33  1  0  0  0
 33 34  1  0  0  0
 34 35  1  0  0  0
 35 36  1  0  0  0
 36 37  1  0  0  0
 37 38  1  0  0  0
  6 11  1  0  0  0
 11 12  1  0  0  0
 12 13  1  0  0  0
 13 14  1  0  0  0
 14 15  1  0  0  0
 15 16  1  0  0  0
 10  1  1  0  0  0
 38 34  1  0  0  0
 16 11  1  0  0  0
  8  3  1  0  0  0
 26 21  1  0  0  0
 19 20  1  0  0  0
M  END
> <minimizedAffinity>
-5.85330

> <CNNscore>
0.1777091473

> <CNNaffinity>
6.0139360428

> <CNN_VS>
1.0687314272

> <CNNaffinity_variance>
0.2845567763

$$$$
[H]c1c(OC([H])([H])C([H])([H])C([H])([H])N2C([H])([H])C([H])([H])C([H])([H])C2([H])[H])c(OC([H])([H])[H])c([H])c2c(N([H])C3([H])C([H])([H])C([H])([H])N(C([H])(C([H])([H])[H])C([H])([H])[H])C([H])([H])C3([H])[H])nc(C3([H])C([H])([H])C([H])([H])C([H])([H])C([H])([H])C3([H])[H])nc12


 38 42  0  0  0  0  0  0  0  0999 V2000
   37.4823  -21.1835   37.2822 C   0  0  0  0  0  0  0  0  0  0  0  0
   36.2015  -20.7473   37.0330 C   0  0  0  0  0  0  0  0  0  0  0  0
   35.9425  -19.4080   36.7552 C   0  0  0  0  0  0  0  0  0  0  0  0
   34.6629  -18.9556   36.5048 C   0  0  0  0  0  0  0  0  0  0  0  0
   34.5158  -17.6357   36.2465 N   0  0  0  0  0  0  0  0  0  0  0  0
   35.5133  -16.7565   36.2185 C   0  0  0  0  0  0  0  0  0  0  0  0
   36.7488  -17.2176   36.4648 N   0  0  0  0  0  0  0  0  0  0  0  0
   36.9855  -18.4998   36.7284 C   0  0  0  0  0  0  0  0  0  0  0  0
   38.2838  -18.9589   36.9843 C   0  0  0  0  0  0  0  0  0  0  0  0
   38.5283  -20.2967   37.2599 C   0  0  0  0  0  0  0  0  0  0  0  0
   35.2529  -15.3370   35.9215 C   0  0  0  0  0  0  0  0  0  0  0  0
   36.4207  -14.4469   36.1920 C   0  0  0  0  0  0  0  0  0  0  0  0
   36.0624  -13.2503   37.0421 C   0  0  0  0  0  0  0  0  0  0  0  0
   34.8565  -12.5119   36.5079 C   0  0  0  0  0  0  0  0  0  0  0  0
   33.7468  -13.4503   36.1051 C   0  0  0  0  0  0  0  0  0  0  0  0
   34.0374  -14.8276   36.7040 C   0  0  0  0  0  0  0  0  0  0  0  0
   37.9260  -23.4886   36.5572 C   0  0  0  0  0  0  0  0  0  0  0  0
   37.7132  -22.5097   37.5532 O   0  0  0  0  0  0  0  0  0  0  0  0
   33.5428  -19.8100   36.4938 N   0  0  0  0  0  0  0  0  0  0  0  0
   33.0178  -20.0064   37.3516 H   0  0  0  0  0  0  0  0  0  0  0  0
   33.1135  -20.4300   35.2614 C   0  0  0  0  0  0  0  0  0  0  0  0
   32.9700  -21.9279   35.4826 C   0  0  0  0  0  0  0  0  0  0  0  0
   31.8064  -22.5137   34.7096 C   0  0  0  0  0  0  0  0  0  0  0  0
   30.5481  -21.9216   35.1148 N   0  0  0  0  0  0  0  0  0  0  0  0
   30.7445  -20.6688   35.8123 C   0  0  0  0  0  0  0  0  0  0  0  0
   31.7167  -19.8553   34.9707 C   0  0  0  0  0  0  0  0  0  0  0  0
   29.7391  -22.8483   35.8787 C   0  0  0  0  0  0  0  0  0  0  0  0
   29.8628  -24.2092   35.2274 C   0  0  0  0  0  0  0  0  0  0  0  0
   28.2817  -22.4606   35.8571 C   0  0  0  0  0  0  0  0  0  0  0  0
   39.8337  -20.6755   37.5024 O   0  0  0  0  0  0  0  0  0  0  0  0
   40.8805  -19.7313   37.5589 C   0  0  0  0  0  0  0  0  0  0  0  0
   41.8011  -19.8339   36.3752 C   0  0  0  0  0  0  0  0  0  0  0  0
   41.5910  -18.7195   35.3856 C   0  0  0  0  0  0  0  0  0  0  0  0
   41.3270  -19.2096   34.0557 N   0  0  0  0  0  0  0  0  0  0  0  0
   40.1387  -18.5562   33.5754 C   0  0  0  0  0  0  0  0  0  0  0  0
   39.1552  -19.6070   33.1784 C   0  0  0  0  0  0  0  0  0  0  0  0
   39.5918  -20.8003   33.9935 C   0  0  0  0  0  0  0  0  0  0  0  0
   41.0930  -20.6194   34.0456 C   0  0  0  0  0  0  0  0  0  0  0  0
 17 18  1  0  0  0
 18  1  1  0  0  0
  1  2  2  0  0  0
  2  3  1  0  0  0
  3  4  2  0  0  0
  4 19  1  0  0  0
 19 21  1  0  0  0
 21 22  1  0  0  0
 22 23  1  0  0  0
 23 24  1  0  0  0
 24 25  1  0  0  0
 25 26  1  0  0  0
 24 27  1  0  0  0
 27 28  1  0  0  0
 27 29  1  0  0  0
  4  5  1  0  0  0
  5  6  2  0  0  0
  6  7  1  0  0  0
  7  8  2  0  0  0
  8  9  1  0  0  0
  9 10  2  0  0  0
 10 30  1  0  0  0
 30 31  1  0  0  0
 31 32  1  0  0  0
 32 33  1  0  0  0
 33 34  1  0  0  0
 34 35  1  0  0  0
 35 36  1  0  0  0
 36 37  1  0  0  0
 37 38  1  0  0  0
  6 11  1  0  0  0
 11 12  1  0  0  0
 12 13  1  0  0  0
 13 14  1  0  0  0
 14 15  1  0  0  0
 15 16  1  0  0  0
 10  1  1  0  0  0
 38 34  1  0  0  0
 16 11  1  0  0  0
  8  3  1  0  0  0
 26 21  1  0  0  0
 19 20  1  0  0  0
M  END
> <minimizedAffinity>
-6.59472

> <CNNscore>
0.1667864025

> <CNNaffinity>
6.3068161011

> <CNN_VS>
1.0518912077

> <CNNaffinity_variance>
0.2827199399

$$$$
[H]c1c(OC([H])([H])C([H])([H])C([H])([H])N2C([H])([H])C([H])([H])C([H])([H])C2([H])[H])c(OC([H])([H])[H])c([H])c2c(N([H])C3([H])C([H])([H])C([H])([H])N(C([H])(C([H])([H])[H])C([H])([H])[H])C([H])([H])C3([H])[H])nc(N3C([H])([H])C([H])([H])N(C([H])([H])C([H])([H])[H])C([H])([H])C([H])([H])C3([H])[H])nc12


 41 45  0  0  0  0  0  0  0  0999 V2000
   34.2823  -18.6781   35.9018 C   0  0  0  0  0  0  0  0  0  0  0  0
   35.5919  -18.8489   36.0974 N   0  0  0  0  0  0  0  0  0  0  0  0
   36.4714  -17.8320   36.3400 C   0  0  0  0  0  0  0  0  0  0  0  0
   35.9596  -16.5572   36.3820 C   0  0  0  0  0  0  0  0  0  0  0  0
   36.7343  -15.4469   36.6132 C   0  0  0  0  0  0  0  0  0  0  0  0
   36.2126  -14.1483   36.6522 C   0  0  0  0  0  0  0  0  0  0  0  0
   34.8454  -13.9403   36.4504 C   0  0  0  0  0  0  0  0  0  0  0  0
   34.0958  -15.0620   36.2232 C   0  0  0  0  0  0  0  0  0  0  0  0
   34.5880  -16.3363   36.1814 C   0  0  0  0  0  0  0  0  0  0  0  0
   33.8294  -17.4167   35.9525 N   0  0  0  0  0  0  0  0  0  0  0  0
   32.1920  -22.6818   35.6036 N   0  0  0  0  0  0  0  0  0  0  0  0
   32.0446  -22.2185   34.2682 C   0  0  0  0  0  0  0  0  0  0  0  0
   31.7451  -20.7494   34.1357 C   0  0  0  0  0  0  0  0  0  0  0  0
   32.9993  -19.9059   34.2424 C   0  0  0  0  0  0  0  0  0  0  0  0
   33.3934  -19.7777   35.6423 N   0  0  0  0  0  0  0  0  0  0  0  0
   32.9886  -20.6223   36.7185 C   0  0  0  0  0  0  0  0  0  0  0  0
   33.2210  -22.0803   36.3812 C   0  0  0  0  0  0  0  0  0  0  0  0
   30.0194  -23.7774   35.3714 C   0  0  0  0  0  0  0  0  0  0  0  0
   31.0009  -23.0420   36.2935 C   0  0  0  0  0  0  0  0  0  0  0  0
   37.8393  -18.0734   36.5383 N   0  0  0  0  0  0  0  0  0  0  0  0
   38.3149  -17.6855   37.3818 H   0  0  0  0  0  0  0  0  0  0  0  0
   38.6782  -18.8334   35.6543 C   0  0  0  0  0  0  0  0  0  0  0  0
   38.7792  -20.2896   35.9585 C   0  0  0  0  0  0  0  0  0  0  0  0
   39.8039  -20.9263   35.0485 C   0  0  0  0  0  0  0  0  0  0  0  0
   40.2301  -20.1342   33.9817 N   0  0  0  0  0  0  0  0  0  0  0  0
   39.3585  -19.2268   33.3659 C   0  0  0  0  0  0  0  0  0  0  0  0
   38.2363  -18.6876   34.2265 C   0  0  0  0  0  0  0  0  0  0  0  0
   41.6041  -20.0574   33.6692 C   0  0  0  0  0  0  0  0  0  0  0  0
   42.3265  -21.0258   34.6200 C   0  0  0  0  0  0  0  0  0  0  0  0
   42.1964  -18.6972   33.9559 C   0  0  0  0  0  0  0  0  0  0  0  0
   37.0646  -13.0853   36.8911 O   0  0  0  0  0  0  0  0  0  0  0  0
   38.2645  -13.2974   37.6041 C   0  0  0  0  0  0  0  0  0  0  0  0
   34.4073  -12.6439   36.4995 O   0  0  0  0  0  0  0  0  0  0  0  0
   33.7610  -11.9196   37.4609 C   0  0  0  0  0  0  0  0  0  0  0  0
   32.4503  -12.3441   37.9696 C   0  0  0  0  0  0  0  0  0  0  0  0
   31.3022  -11.4397   37.7400 C   0  0  0  0  0  0  0  0  0  0  0  0
   29.9818  -12.0186   37.6631 N   0  0  0  0  0  0  0  0  0  0  0  0
   29.6455  -12.6299   38.9678 C   0  0  0  0  0  0  0  0  0  0  0  0
   29.1373  -11.5343   39.8462 C   0  0  0  0  0  0  0  0  0  0  0  0
   28.3550  -10.6874   38.8601 C   0  0  0  0  0  0  0  0  0  0  0  0
   28.9734  -10.9548   37.5289 C   0  0  0  0  0  0  0  0  0  0  0  0
 18 19  1  0  0  0
 19 11  1  0  0  0
 11 12  1  0  0  0
 12 13  1  0  0  0
 13 14  1  0  0  0
 14 15  1  0  0  0
 15 16  1  0  0  0
 16 17  1  0  0  0
 15  1  1  0  0  0
  1  2  2  0  0  0
  2  3  1  0  0  0
  3 20  1  0  0  0
 20 22  1  0  0  0
 22 23  1  0  0  0
 23 24  1  0  0  0
 24 25  1  0  0  0
 25 26  1  0  0  0
 26 27  1  0  0  0
 25 28  1  0  0  0
 28 29  1  0  0  0
 28 30  1  0  0  0
  3  4  2  0  0  0
  4  5  1  0  0  0
  5  6  2  0  0  0
  6 31  1  0  0  0
 31 32  1  0  0  0
  6  7  1  0  0  0
  7 33  1  0  0  0
 33 34  1  0  0  0
 34 35  1  0  0  0
 35 36  1  0  0  0
 36 37  1  0  0  0
 37 38  1  0  0  0
 38 39  1  0  0  0
 39 40  1  0  0  0
 40 41  1  0  0  0
  7  8  2  0  0  0
  8  9  1  0  0  0
  9 10  2  0  0  0
 17 11  1  0  0  0
 10  1  1  0  0  0
 27 22  1  0  0  0
  9  4  1  0  0  0
 41 37  1  0  0  0
 20 21  1  0  0  0
M  END
> <minimizedAffinity>
-8.19768

> <CNNscore>
0.5851431489

> <CNNaffinity>
7.1841850281

> <CNN_VS>
4.2037768364

> <CNNaffinity_variance>
0.0736235008

$$$$
[H]c1c(OC([H])([H])C([H])([H])C([H])([H])N2C([H])([H])C([H])([H])C([H])([H])C2([H])[H])c(OC([H])([H])[H])c([H])c2c(N([H])C3([H])C([H])([H])C([H])([H])N(C([H])(C([H])([H])[H])C([H])([H])[H])C([H])([H])C3([H])[H])nc(N3C([H])([H])C([H])([H])N(C([H])([H])C([H])([H])[H])C([H])([H])C([H])([H])C3([H])[H])nc12


 41 45  0  0  0  0  0  0  0  0999 V2000
   34.2997  -18.6218   35.8739 C   0  0  0  0  0  0  0  0  0  0  0  0
   35.6129  -18.7848   36.0506 N   0  0  0  0  0  0  0  0  0  0  0  0
   36.4871  -17.7645   36.2984 C   0  0  0  0  0  0  0  0  0  0  0  0
   35.9655  -16.4948   36.3667 C   0  0  0  0  0  0  0  0  0  0  0  0
   36.7339  -15.3818   36.6058 C   0  0  0  0  0  0  0  0  0  0  0  0
   36.2023  -14.0884   36.6716 C   0  0  0  0  0  0  0  0  0  0  0  0
   34.8310  -13.8887   36.4899 C   0  0  0  0  0  0  0  0  0  0  0  0
   34.0878  -15.0129   36.2543 C   0  0  0  0  0  0  0  0  0  0  0  0
   34.5898  -16.2823   36.1865 C   0  0  0  0  0  0  0  0  0  0  0  0
   33.8372  -17.3652   35.9500 N   0  0  0  0  0  0  0  0  0  0  0  0
   32.2111  -22.6272   35.5858 N   0  0  0  0  0  0  0  0  0  0  0  0
   32.1038  -22.1876   34.2386 C   0  0  0  0  0  0  0  0  0  0  0  0
   31.8111  -20.7206   34.0713 C   0  0  0  0  0  0  0  0  0  0  0  0
   33.0634  -19.8772   34.1996 C   0  0  0  0  0  0  0  0  0  0  0  0
   33.4166  -19.7247   35.6080 N   0  0  0  0  0  0  0  0  0  0  0  0
   32.9787  -20.5493   36.6867 C   0  0  0  0  0  0  0  0  0  0  0  0
   33.2181  -22.0135   36.3823 C   0  0  0  0  0  0  0  0  0  0  0  0
   30.0389  -23.7125   35.3059 C   0  0  0  0  0  0  0  0  0  0  0  0
   30.9996  -22.9733   36.2467 C   0  0  0  0  0  0  0  0  0  0  0  0
   37.8593  -17.9977   36.4760 N   0  0  0  0  0  0  0  0  0  0  0  0
   38.3900  -17.4425   37.1820 H   0  0  0  0  0  0  0  0  0  0  0  0
   38.6312  -18.9659   35.7486 C   0  0  0  0  0  0  0  0  0  0  0  0
   38.7161  -18.7449   34.2765 C   0  0  0  0  0  0  0  0  0  0  0  0
   39.4245  -19.9128   33.6299 C   0  0  0  0  0  0  0  0  0  0  0  0
   40.0651  -20.7851   34.5106 N   0  0  0  0  0  0  0  0  0  0  0  0
   40.6390  -20.3152   35.6989 C   0  0  0  0  0  0  0  0  0  0  0  0
   40.0308  -19.0593   36.2848 C   0  0  0  0  0  0  0  0  0  0  0  0
   39.9305  -22.1795   34.3397 C   0  0  0  0  0  0  0  0  0  0  0  0
   38.9028  -22.6533   35.3802 C   0  0  0  0  0  0  0  0  0  0  0  0
   41.2000  -22.9352   34.6568 C   0  0  0  0  0  0  0  0  0  0  0  0
   37.0485  -13.0223   36.9168 O   0  0  0  0  0  0  0  0  0  0  0  0
   38.2798  -13.2428   37.5712 C   0  0  0  0  0  0  0  0  0  0  0  0
   34.3830  -12.5969   36.5648 O   0  0  0  0  0  0  0  0  0  0  0  0
   33.7605  -11.8874   37.5526 C   0  0  0  0  0  0  0  0  0  0  0  0
   32.4248  -12.2707   38.0276 C   0  0  0  0  0  0  0  0  0  0  0  0
   31.2845  -11.4198   37.6219 C   0  0  0  0  0  0  0  0  0  0  0  0
   29.9628  -12.0007   37.6285 N   0  0  0  0  0  0  0  0  0  0  0  0
   29.7205  -12.6354   38.9427 C   0  0  0  0  0  0  0  0  0  0  0  0
   29.2742  -11.5566   39.8739 C   0  0  0  0  0  0  0  0  0  0  0  0
   28.4229  -10.6947   38.9606 C   0  0  0  0  0  0  0  0  0  0  0  0
   28.9460  -10.9373   37.5845 C   0  0  0  0  0  0  0  0  0  0  0  0
 18 19  1  0  0  0
 19 11  1  0  0  0
 11 12  1  0  0  0
 12 13  1  0  0  0
 13 14  1  0  0  0
 14 15  1  0  0  0
 15 16  1  0  0  0
 16 17  1  0  0  0
 15  1  1  0  0  0
  1  2  2  0  0  0
  2  3  1  0  0  0
  3 20  1  0  0  0
 20 22  1  0  0  0
 22 23  1  0  0  0
 23 24  1  0  0  0
 24 25  1  0  0  0
 25 26  1  0  0  0
 26 27  1  0  0  0
 25 28  1  0  0  0
 28 29  1  0  0  0
 28 30  1  0  0  0
  3  4  2  0  0  0
  4  5  1  0  0  0
  5  6  2  0  0  0
  6 31  1  0  0  0
 31 32  1  0  0  0
  6  7  1  0  0  0
  7 33  1  0  0  0
 33 34  1  0  0  0
 34 35  1  0  0  0
 35 36  1  0  0  0
 36 37  1  0  0  0
 37 38  1  0  0  0
 38 39  1  0  0  0
 39 40  1  0  0  0
 40 41  1  0  0  0
  7  8  2  0  0  0
  8  9  1  0  0  0
  9 10  2  0  0  0
 17 11  1  0  0  0
 10  1  1  0  0  0
 27 22  1  0  0  0
  9  4  1  0  0  0
 41 37  1  0  0  0
 20 21  1  0  0  0
M  END
> <minimizedAffinity>
-8.09037

> <CNNscore>
0.5149694085

> <CNNaffinity>
7.1277046204

> <CNN_VS>
3.6705498695

> <CNNaffinity_variance>
0.0567076430

$$$$
[H]c1c(OC([H])([H])C([H])([H])C([H])([H])N2C([H])([H])C([H])([H])C([H])([H])C2([H])[H])c(OC([H])([H])[H])c([H])c2c(N([H])C3([H])C([H])([H])C([H])([H])N(C([H])(C([H])([H])[H])C([H])([H])[H])C([H])([H])C3([H])[H])nc(N3C([H])([H])C([H])([H])N(C([H])([H])C([H])([H])[H])C([H])([H])C([H])([H])C3([H])[H])nc12


 41 45  0  0  0  0  0  0  0  0999 V2000
   34.0481  -18.2888   35.4966 C   0  0  0  0  0  0  0  0  0  0  0  0
   35.3696  -18.4781   35.5026 N   0  0  0  0  0  0  0  0  0  0  0  0
   36.2846  -17.4998   35.7714 C   0  0  0  0  0  0  0  0  0  0  0  0
   35.7973  -16.2456   36.0514 C   0  0  0  0  0  0  0  0  0  0  0  0
   36.6079  -15.1738   36.3349 C   0  0  0  0  0  0  0  0  0  0  0  0
   36.1107  -13.8957   36.6164 C   0  0  0  0  0  0  0  0  0  0  0  0
   34.7316  -13.6690   36.6166 C   0  0  0  0  0  0  0  0  0  0  0  0
   33.9463  -14.7526   36.3324 C   0  0  0  0  0  0  0  0  0  0  0  0
   34.4142  -16.0064   36.0551 C   0  0  0  0  0  0  0  0  0  0  0  0
   33.6201  -17.0489   35.7760 N   0  0  0  0  0  0  0  0  0  0  0  0
   31.0641  -21.6909   35.5929 N   0  0  0  0  0  0  0  0  0  0  0  0
   31.9582  -22.1659   34.5956 C   0  0  0  0  0  0  0  0  0  0  0  0
   32.4746  -21.1122   33.6528 C   0  0  0  0  0  0  0  0  0  0  0  0
   33.6282  -20.3344   34.2530 C   0  0  0  0  0  0  0  0  0  0  0  0
   33.1208  -19.3469   35.2009 N   0  0  0  0  0  0  0  0  0  0  0  0
   31.8403  -19.3542   35.8299 C   0  0  0  0  0  0  0  0  0  0  0  0
   31.5618  -20.6943   36.4784 C   0  0  0  0  0  0  0  0  0  0  0  0
   28.8054  -22.4354   36.1574 C   0  0  0  0  0  0  0  0  0  0  0  0
   29.6916  -21.5927   35.2307 C   0  0  0  0  0  0  0  0  0  0  0  0
   37.6635  -17.7592   35.7631 N   0  0  0  0  0  0  0  0  0  0  0  0
   38.3170  -17.0638   35.3417 H   0  0  0  0  0  0  0  0  0  0  0  0
   38.2832  -18.9381   36.3006 C   0  0  0  0  0  0  0  0  0  0  0  0
   37.5867  -19.5556   37.4653 C   0  0  0  0  0  0  0  0  0  0  0  0
   38.4254  -20.6864   38.0146 C   0  0  0  0  0  0  0  0  0  0  0  0
   39.4908  -21.0869   37.2074 N   0  0  0  0  0  0  0  0  0  0  0  0
   39.3970  -21.0295   35.8109 C   0  0  0  0  0  0  0  0  0  0  0  0
   38.4484  -19.9943   35.2459 C   0  0  0  0  0  0  0  0  0  0  0  0
   40.7580  -21.3211   37.7826 C   0  0  0  0  0  0  0  0  0  0  0  0
   40.8453  -20.4308   39.0328 C   0  0  0  0  0  0  0  0  0  0  0  0
   41.8971  -20.8780   36.8941 C   0  0  0  0  0  0  0  0  0  0  0  0
   36.9984  -12.8714   36.8914 O   0  0  0  0  0  0  0  0  0  0  0  0
   38.2417  -13.1658   37.4919 C   0  0  0  0  0  0  0  0  0  0  0  0
   34.3185  -12.3940   36.8974 O   0  0  0  0  0  0  0  0  0  0  0  0
   33.6195  -11.8546   37.9399 C   0  0  0  0  0  0  0  0  0  0  0  0
   32.2681  -11.3150   37.7412 C   0  0  0  0  0  0  0  0  0  0  0  0
   31.1266  -12.2267   37.9750 C   0  0  0  0  0  0  0  0  0  0  0  0
   29.8121  -11.7946   37.5628 N   0  0  0  0  0  0  0  0  0  0  0  0
   28.8131  -12.2943   38.5328 C   0  0  0  0  0  0  0  0  0  0  0  0
   28.7940  -11.3331   39.6755 C   0  0  0  0  0  0  0  0  0  0  0  0
   28.9826  -10.0063   38.9646 C   0  0  0  0  0  0  0  0  0  0  0  0
   29.6982  -10.3332   37.6969 C   0  0  0  0  0  0  0  0  0  0  0  0
 18 19  1  0  0  0
 19 11  1  0  0  0
 11 12  1  0  0  0
 12 13  1  0  0  0
 13 14  1  0  0  0
 14 15  1  0  0  0
 15 16  1  0  0  0
 16 17  1  0  0  0
 15  1  1  0  0  0
  1  2  2  0  0  0
  2  3  1  0  0  0
  3 20  1  0  0  0
 20 22  1  0  0  0
 22 23  1  0  0  0
 23 24  1  0  0  0
 24 25  1  0  0  0
 25 26  1  0  0  0
 26 27  1  0  0  0
 25 28  1  0  0  0
 28 29  1  0  0  0
 28 30  1  0  0  0
  3  4  2  0  0  0
  4  5  1  0  0  0
  5  6  2  0  0  0
  6 31  1  0  0  0
 31 32  1  0  0  0
  6  7  1  0  0  0
  7 33  1  0  0  0
 33 34  1  0  0  0
 34 35  1  0  0  0
 35 36  1  0  0  0
 36 37  1  0  0  0
 37 38  1  0  0  0
 38 39  1  0  0  0
 39 40  1  0  0  0
 40 41  1  0  0  0
  7  8  2  0  0  0
  8  9  1  0  0  0
  9 10  2  0  0  0
 17 11  1  0  0  0
 10  1  1  0  0  0
 27 22  1  0  0  0
  9  4  1  0  0  0
 41 37  1  0  0  0
 20 21  1  0  0  0
M  END
> <minimizedAffinity>
-7.40563

> <CNNscore>
0.4348897338

> <CNNaffinity>
7.1469817162

> <CNN_VS>
3.1081490517

> <CNNaffinity_variance>
0.0219843779

$$$$
[H]c1c(OC([H])([H])C([H])([H])C([H])([H])N2C([H])([H])C([H])([H])C([H])([H])C2([H])[H])c(OC([H])([H])[H])c([H])c2c(N([H])C3([H])C([H])([H])C([H])([H])N(C([H])(C([H])([H])[H])C([H])([H])[H])C([H])([H])C3([H])[H])nc(N3C([H])([H])C([H])([H])N(C([H])([H])C([H])([H])[H])C([H])([H])C([H])([H])C3([H])[H])nc12


 41 45  0  0  0  0  0  0  0  0999 V2000
   35.8598  -16.7198   36.3329 C   0  0  0  0  0  0  0  0  0  0  0  0
   35.0894  -17.5512   35.6276 N   0  0  0  0  0  0  0  0  0  0  0  0
   35.4030  -18.8555   35.3685 C   0  0  0  0  0  0  0  0  0  0  0  0
   36.5915  -19.3265   35.8729 C   0  0  0  0  0  0  0  0  0  0  0  0
   37.0270  -20.6151   35.6826 C   0  0  0  0  0  0  0  0  0  0  0  0
   38.2396  -21.0930   36.1937 C   0  0  0  0  0  0  0  0  0  0  0  0
   39.0659  -20.2443   36.9353 C   0  0  0  0  0  0  0  0  0  0  0  0
   38.6092  -18.9668   37.1114 C   0  0  0  0  0  0  0  0  0  0  0  0
   37.4291  -18.4834   36.6197 C   0  0  0  0  0  0  0  0  0  0  0  0
   37.0092  -17.2246   36.8049 N   0  0  0  0  0  0  0  0  0  0  0  0
   33.9147  -12.6351   36.4748 N   0  0  0  0  0  0  0  0  0  0  0  0
   35.2744  -12.2625   36.2953 C   0  0  0  0  0  0  0  0  0  0  0  0
   36.2667  -13.0938   37.0635 C   0  0  0  0  0  0  0  0  0  0  0  0
   36.5774  -14.3977   36.3570 C   0  0  0  0  0  0  0  0  0  0  0  0
   35.4934  -15.3510   36.5756 N   0  0  0  0  0  0  0  0  0  0  0  0
   34.1622  -15.0427   36.9858 C   0  0  0  0  0  0  0  0  0  0  0  0
   33.5603  -13.9640   36.1095 C   0  0  0  0  0  0  0  0  0  0  0  0
   33.4428  -10.5642   37.6845 C   0  0  0  0  0  0  0  0  0  0  0  0
   33.2407  -12.0829   37.5996 C   0  0  0  0  0  0  0  0  0  0  0  0
   34.5518  -19.6825   34.6199 N   0  0  0  0  0  0  0  0  0  0  0  0
   34.8524  -20.0149   33.6779 H   0  0  0  0  0  0  0  0  0  0  0  0
   33.2555  -20.1309   35.0455 C   0  0  0  0  0  0  0  0  0  0  0  0
   33.1527  -20.5316   36.4779 C   0  0  0  0  0  0  0  0  0  0  0  0
   31.7856  -21.1189   36.7418 C   0  0  0  0  0  0  0  0  0  0  0  0
   30.8482  -20.9313   35.7254 N   0  0  0  0  0  0  0  0  0  0  0  0
   30.8648  -19.7745   34.9355 C   0  0  0  0  0  0  0  0  0  0  0  0
   32.2058  -19.0907   34.7786 C   0  0  0  0  0  0  0  0  0  0  0  0
   30.0292  -22.0061   35.3185 C   0  0  0  0  0  0  0  0  0  0  0  0
   28.8959  -22.1118   36.3520 C   0  0  0  0  0  0  0  0  0  0  0  0
   30.7413  -23.3379   35.3665 C   0  0  0  0  0  0  0  0  0  0  0  0
   38.6023  -22.4061   35.9546 O   0  0  0  0  0  0  0  0  0  0  0  0
   37.8150  -23.4553   36.4765 C   0  0  0  0  0  0  0  0  0  0  0  0
   40.2372  -20.7796   37.4007 O   0  0  0  0  0  0  0  0  0  0  0  0
   41.5384  -20.3702   37.3244 C   0  0  0  0  0  0  0  0  0  0  0  0
   42.0335  -19.6515   36.1433 C   0  0  0  0  0  0  0  0  0  0  0  0
   41.9684  -20.3500   34.8407 C   0  0  0  0  0  0  0  0  0  0  0  0
   41.8218  -19.5536   33.6454 N   0  0  0  0  0  0  0  0  0  0  0  0
   40.9242  -20.2572   32.7032 C   0  0  0  0  0  0  0  0  0  0  0  0
   39.5238  -19.9387   33.1126 C   0  0  0  0  0  0  0  0  0  0  0  0
   39.6515  -18.4901   33.5448 C   0  0  0  0  0  0  0  0  0  0  0  0
   41.0773  -18.3211   33.9506 C   0  0  0  0  0  0  0  0  0  0  0  0
 18 19  1  0  0  0
 19 11  1  0  0  0
 11 12  1  0  0  0
 12 13  1  0  0  0
 13 14  1  0  0  0
 14 15  1  0  0  0
 15 16  1  0  0  0
 16 17  1  0  0  0
 15  1  1  0  0  0
  1  2  2  0  0  0
  2  3  1  0  0  0
  3 20  1  0  0  0
 20 22  1  0  0  0
 22 23  1  0  0  0
 23 24  1  0  0  0
 24 25  1  0  0  0
 25 26  1  0  0  0
 26 27  1  0  0  0
 25 28  1  0  0  0
 28 29  1  0  0  0
 28 30  1  0  0  0
  3  4  2  0  0  0
  4  5  1  0  0  0
  5  6  2  0  0  0
  6 31  1  0  0  0
 31 32  1  0  0  0
  6  7  1  0  0  0
  7 33  1  0  0  0
 33 34  1  0  0  0
 34 35  1  0  0  0
 35 36  1  0  0  0
 36 37  1  0  0  0
 37 38  1  0  0  0
 38 39  1  0  0  0
 39 40  1  0  0  0
 40 41  1  0  0  0
  7  8  2  0  0  0
  8  9  1  0  0  0
  9 10  2  0  0  0
 17 11  1  0  0  0
 10  1  1  0  0  0
 27 22  1  0  0  0
  9  4  1  0  0  0
 41 37  1  0  0  0
 20 21  1  0  0  0
M  END
> <minimizedAffinity>
-6.43277

> <CNNscore>
0.3465186059

> <CNNaffinity>
6.8602242470

> <CNN_VS>
2.3771953583

> <CNNaffinity_variance>
0.1065069214

$$$$
[H]c1c(OC([H])([H])C([H])([H])C([H])([H])N2C([H])([H])C([H])([H])C([H])([H])C2([H])[H])c(OC([H])([H])[H])c([H])c2c(N([H])C3([H])C([H])([H])C([H])([H])N(C([H])(C([H])([H])[H])C([H])([H])[H])C([H])([H])C3([H])[H])nc(N3C([H])([H])C([H])([H])N(C([H])([H])C([H])([H])[H])C([H])([H])C([H])([H])C3([H])[H])nc12


 41 45  0  0  0  0  0  0  0  0999 V2000
   34.7464  -19.8273   36.5457 C   0  0  0  0  0  0  0  0  0  0  0  0
   36.0666  -19.9536   36.6987 N   0  0  0  0  0  0  0  0  0  0  0  0
   36.9358  -18.9020   36.7702 C   0  0  0  0  0  0  0  0  0  0  0  0
   36.4011  -17.6394   36.6767 C   0  0  0  0  0  0  0  0  0  0  0  0
   37.1632  -16.4980   36.7301 C   0  0  0  0  0  0  0  0  0  0  0  0
   36.6181  -15.2123   36.6311 C   0  0  0  0  0  0  0  0  0  0  0  0
   35.2393  -15.0507   36.4700 C   0  0  0  0  0  0  0  0  0  0  0  0
   34.5026  -16.2025   36.4207 C   0  0  0  0  0  0  0  0  0  0  0  0
   35.0177  -17.4649   36.5153 C   0  0  0  0  0  0  0  0  0  0  0  0
   34.2712  -18.5760   36.4596 N   0  0  0  0  0  0  0  0  0  0  0  0
   31.2986  -22.7548   36.7193 N   0  0  0  0  0  0  0  0  0  0  0  0
   32.3518  -23.5739   37.2086 C   0  0  0  0  0  0  0  0  0  0  0  0
   33.6739  -23.3904   36.5127 C   0  0  0  0  0  0  0  0  0  0  0  0
   34.4264  -22.1854   37.0397 C   0  0  0  0  0  0  0  0  0  0  0  0
   33.8687  -20.9633   36.4682 N   0  0  0  0  0  0  0  0  0  0  0  0
   32.5805  -20.8158   35.8731 C   0  0  0  0  0  0  0  0  0  0  0  0
   31.4963  -21.3472   36.7875 C   0  0  0  0  0  0  0  0  0  0  0  0
   29.1209  -22.7532   35.6093 C   0  0  0  0  0  0  0  0  0  0  0  0
   30.5751  -23.2423   35.5953 C   0  0  0  0  0  0  0  0  0  0  0  0
   38.3158  -19.0973   36.9320 N   0  0  0  0  0  0  0  0  0  0  0  0
   38.8170  -18.6184   37.7115 H   0  0  0  0  0  0  0  0  0  0  0  0
   39.1344  -19.9263   36.0921 C   0  0  0  0  0  0  0  0  0  0  0  0
   39.0670  -19.6274   34.6330 C   0  0  0  0  0  0  0  0  0  0  0  0
   39.8537  -20.6659   33.8672 C   0  0  0  0  0  0  0  0  0  0  0  0
   40.6671  -21.4920   34.6438 N   0  0  0  0  0  0  0  0  0  0  0  0
   41.2788  -21.0105   35.8084 C   0  0  0  0  0  0  0  0  0  0  0  0
   40.5755  -19.8694   36.5110 C   0  0  0  0  0  0  0  0  0  0  0  0
   40.6876  -22.8826   34.4045 C   0  0  0  0  0  0  0  0  0  0  0  0
   41.3834  -23.0858   33.0488 C   0  0  0  0  0  0  0  0  0  0  0  0
   39.3055  -23.4703   34.2382 C   0  0  0  0  0  0  0  0  0  0  0  0
   37.4587  -14.1159   36.6945 O   0  0  0  0  0  0  0  0  0  0  0  0
   38.1635  -13.8430   37.8869 C   0  0  0  0  0  0  0  0  0  0  0  0
   34.7781  -13.7647   36.3773 O   0  0  0  0  0  0  0  0  0  0  0  0
   34.8758  -12.6828   37.2060 C   0  0  0  0  0  0  0  0  0  0  0  0
   33.8340  -11.6479   37.2190 C   0  0  0  0  0  0  0  0  0  0  0  0
   34.1473  -10.3541   36.5734 C   0  0  0  0  0  0  0  0  0  0  0  0
   33.7551   -9.1406   37.2501 N   0  0  0  0  0  0  0  0  0  0  0  0
   33.9971   -7.9881   36.3546 C   0  0  0  0  0  0  0  0  0  0  0  0
   32.8179   -7.8865   35.4439 C   0  0  0  0  0  0  0  0  0  0  0  0
   31.6788   -8.2629   36.3725 C   0  0  0  0  0  0  0  0  0  0  0  0
   32.2945   -9.1153   37.4311 C   0  0  0  0  0  0  0  0  0  0  0  0
 18 19  1  0  0  0
 19 11  1  0  0  0
 11 12  1  0  0  0
 12 13  1  0  0  0
 13 14  1  0  0  0
 14 15  1  0  0  0
 15 16  1  0  0  0
 16 17  1  0  0  0
 15  1  1  0  0  0
  1  2  2  0  0  0
  2  3  1  0  0  0
  3 20  1  0  0  0
 20 22  1  0  0  0
 22 23  1  0  0  0
 23 24  1  0  0  0
 24 25  1  0  0  0
 25 26  1  0  0  0
 26 27  1  0  0  0
 25 28  1  0  0  0
 28 29  1  0  0  0
 28 30  1  0  0  0
  3  4  2  0  0  0
  4  5  1  0  0  0
  5  6  2  0  0  0
  6 31  1  0  0  0
 31 32  1  0  0  0
  6  7  1  0  0  0
  7 33  1  0  0  0
 33 34  1  0  0  0
 34 35  1  0  0  0
 35 36  1  0  0  0
 36 37  1  0  0  0
 37 38  1  0  0  0
 38 39  1  0  0  0
 39 40  1  0  0  0
 40 41  1  0  0  0
  7  8  2  0  0  0
  8  9  1  0  0  0
  9 10  2  0  0  0
 17 11  1  0  0  0
 10  1  1  0  0  0
 27 22  1  0  0  0
  9  4  1  0  0  0
 41 37  1  0  0  0
 20 21  1  0  0  0
M  END
> <minimizedAffinity>
-5.82225

> <CNNscore>
0.3052637577

> <CNNaffinity>
6.1829042435

> <CNN_VS>
1.8874166012

> <CNNaffinity_variance>
0.0723346025

$$$$
[H]c1c(OC([H])([H])C([H])([H])C([H])([H])N2C([H])([H])C([H])([H])C([H])([H])C2([H])[H])c(OC([H])([H])[H])c([H])c2c(N([H])C3([H])C([H])([H])C([H])([H])N(C([H])(C([H])([H])[H])C([H])([H])[H])C([H])([H])C3([H])[H])nc(N3C([H])([H])C([H])([H])N(C([H])([H])C([H])([H])[H])C([H])([H])C([H])([H])C3([H])[H])nc12


 41 45  0  0  0  0  0  0  0  0999 V2000
   34.3389  -16.6045   35.6728 C   0  0  0  0  0  0  0  0  0  0  0  0
   35.3109  -17.3394   35.1273 N   0  0  0  0  0  0  0  0  0  0  0  0
   35.1416  -18.6120   34.6600 C   0  0  0  0  0  0  0  0  0  0  0  0
   33.8842  -19.1565   34.7659 C   0  0  0  0  0  0  0  0  0  0  0  0
   33.5798  -20.4258   34.3387 C   0  0  0  0  0  0  0  0  0  0  0  0
   32.2995  -20.9811   34.4503 C   0  0  0  0  0  0  0  0  0  0  0  0
   31.2633  -20.2344   35.0177 C   0  0  0  0  0  0  0  0  0  0  0  0
   31.5919  -18.9733   35.4342 C   0  0  0  0  0  0  0  0  0  0  0  0
   32.8357  -18.4157   35.3334 C   0  0  0  0  0  0  0  0  0  0  0  0
   33.1293  -17.1780   35.7542 N   0  0  0  0  0  0  0  0  0  0  0  0
   34.2247  -12.1798   36.6200 N   0  0  0  0  0  0  0  0  0  0  0  0
   35.6161  -12.3540   36.3892 C   0  0  0  0  0  0  0  0  0  0  0  0
   36.1937  -13.6341   36.9310 C   0  0  0  0  0  0  0  0  0  0  0  0
   35.9389  -14.8051   36.0039 C   0  0  0  0  0  0  0  0  0  0  0  0
   34.5637  -15.2702   36.1585 N   0  0  0  0  0  0  0  0  0  0  0  0
   33.4779  -14.5359   36.7216 C   0  0  0  0  0  0  0  0  0  0  0  0
   33.3562  -13.1694   36.0800 C   0  0  0  0  0  0  0  0  0  0  0  0
   33.4653  -10.1360   37.7248 C   0  0  0  0  0  0  0  0  0  0  0  0
   33.8469  -11.6150   37.8701 C   0  0  0  0  0  0  0  0  0  0  0  0
   36.2026  -19.3361   34.0956 N   0  0  0  0  0  0  0  0  0  0  0  0
   36.0707  -19.8143   33.1779 H   0  0  0  0  0  0  0  0  0  0  0  0
   37.5031  -19.4869   34.6861 C   0  0  0  0  0  0  0  0  0  0  0  0
   37.5654  -20.3702   35.8856 C   0  0  0  0  0  0  0  0  0  0  0  0
   38.9521  -20.3137   36.4836 C   0  0  0  0  0  0  0  0  0  0  0  0
   39.9212  -19.7003   35.6889 N   0  0  0  0  0  0  0  0  0  0  0  0
   39.8707  -19.7931   34.2921 C   0  0  0  0  0  0  0  0  0  0  0  0
   38.4996  -19.9949   33.6840 C   0  0  0  0  0  0  0  0  0  0  0  0
   40.8204  -18.7777   36.2649 C   0  0  0  0  0  0  0  0  0  0  0  0
   41.9436  -18.5582   35.2384 C   0  0  0  0  0  0  0  0  0  0  0  0
   41.5049  -19.3174   37.4992 C   0  0  0  0  0  0  0  0  0  0  0  0
   32.0797  -22.2682   33.9942 O   0  0  0  0  0  0  0  0  0  0  0  0
   31.9111  -23.3194   34.9213 C   0  0  0  0  0  0  0  0  0  0  0  0
   30.0392  -20.8431   35.0967 O   0  0  0  0  0  0  0  0  0  0  0  0
   29.0356  -20.7900   36.0222 C   0  0  0  0  0  0  0  0  0  0  0  0
   28.4710  -22.0202   36.5919 C   0  0  0  0  0  0  0  0  0  0  0  0
   28.5400  -22.1881   38.0602 C   0  0  0  0  0  0  0  0  0  0  0  0
   28.7129  -23.5209   38.5876 N   0  0  0  0  0  0  0  0  0  0  0  0
   29.9074  -24.1349   37.9671 C   0  0  0  0  0  0  0  0  0  0  0  0
   31.0949  -23.6542   38.7345 C   0  0  0  0  0  0  0  0  0  0  0  0
   30.5548  -23.6274   40.1520 C   0  0  0  0  0  0  0  0  0  0  0  0
   29.0795  -23.4546   40.0116 C   0  0  0  0  0  0  0  0  0  0  0  0
 18 19  1  0  0  0
 19 11  1  0  0  0
 11 12  1  0  0  0
 12 13  1  0  0  0
 13 14  1  0  0  0
 14 15  1  0  0  0
 15 16  1  0  0  0
 16 17  1  0  0  0
 15  1  1  0  0  0
  1  2  2  0  0  0
  2  3  1  0  0  0
  3 20  1  0  0  0
 20 22  1  0  0  0
 22 23  1  0  0  0
 23 24  1  0  0  0
 24 25  1  0  0  0
 25 26  1  0  0  0
 26 27  1  0  0  0
 25 28  1  0  0  0
 28 29  1  0  0  0
 28 30  1  0  0  0
  3  4  2  0  0  0
  4  5  1  0  0  0
  5  6  2  0  0  0
  6 31  1  0  0  0
 31 32  1  0  0  0
  6  7  1  0  0  0
  7 33  1  0  0  0
 33 34  1  0  0  0
 34 35  1  0  0  0
 35 36  1  0  0  0
 36 37  1  0  0  0
 37 38  1  0  0  0
 38 39  1  0  0  0
 39 40  1  0  0  0
 40 41  1  0  0  0
  7  8  2  0  0  0
  8  9  1  0  0  0
  9 10  2  0  0  0
 17 11  1  0  0  0
 10  1  1  0  0  0
 27 22  1  0  0  0
  9  4  1  0  0  0
 41 37  1  0  0  0
 20 21  1  0  0  0
M  END
> <minimizedAffinity>
-6.76888

> <CNNscore>
0.3013567924

> <CNNaffinity>
6.6438040733

> <CNN_VS>
2.0021555424

> <CNNaffinity_variance>
0.2395033091

$$$$
[H]c1c(OC([H])([H])C([H])([H])C([H])([H])N2C([H])([H])C([H])([H])C([H])([H])C2([H])[H])c(OC([H])([H])[H])c([H])c2c(N([H])C3([H])C([H])([H])C([H])([H])N(C([H])(C([H])([H])[H])C([H])([H])[H])C([H])([H])C3([H])[H])nc(N3C([H])([H])C([H])([H])N(C([H])([H])C([H])([H])[H])C([H])([H])C([H])([H])C3([H])[H])nc12


 41 45  0  0  0  0  0  0  0  0999 V2000
   35.9743  -18.5507   36.8890 C   0  0  0  0  0  0  0  0  0  0  0  0
   37.2115  -18.9515   37.1905 N   0  0  0  0  0  0  0  0  0  0  0  0
   37.5708  -20.2552   37.3846 C   0  0  0  0  0  0  0  0  0  0  0  0
   36.5836  -21.2030   37.2580 C   0  0  0  0  0  0  0  0  0  0  0  0
   36.8094  -22.5467   37.4307 C   0  0  0  0  0  0  0  0  0  0  0  0
   35.8024  -23.5110   37.3052 C   0  0  0  0  0  0  0  0  0  0  0  0
   34.4982  -23.1196   36.9906 C   0  0  0  0  0  0  0  0  0  0  0  0
   34.2997  -21.7764   36.8228 C   0  0  0  0  0  0  0  0  0  0  0  0
   35.2703  -20.8215   36.9418 C   0  0  0  0  0  0  0  0  0  0  0  0
   35.0453  -19.5113   36.7755 N   0  0  0  0  0  0  0  0  0  0  0  0
   35.3011  -14.0890   37.2471 N   0  0  0  0  0  0  0  0  0  0  0  0
   34.0571  -14.4893   36.6885 C   0  0  0  0  0  0  0  0  0  0  0  0
   34.1501  -15.5598   35.6344 C   0  0  0  0  0  0  0  0  0  0  0  0
   34.2705  -16.9421   36.2431 C   0  0  0  0  0  0  0  0  0  0  0  0
   35.6390  -17.1655   36.7001 N   0  0  0  0  0  0  0  0  0  0  0  0
   36.6190  -16.1634   36.9660 C   0  0  0  0  0  0  0  0  0  0  0  0
   36.0690  -15.0987   37.8921 C   0  0  0  0  0  0  0  0  0  0  0  0
   35.1610  -11.8510   36.2743 C   0  0  0  0  0  0  0  0  0  0  0  0
   36.0280  -13.0878   36.5445 C   0  0  0  0  0  0  0  0  0  0  0  0
   38.8896  -20.6163   37.6999 N   0  0  0  0  0  0  0  0  0  0  0  0
   39.0835  -21.1492   38.5754 H   0  0  0  0  0  0  0  0  0  0  0  0
   40.0416  -20.3085   36.8995 C   0  0  0  0  0  0  0  0  0  0  0  0
   41.2376  -19.8322   37.6516 C   0  0  0  0  0  0  0  0  0  0  0  0
   42.3112  -19.4063   36.6771 C   0  0  0  0  0  0  0  0  0  0  0  0
   42.0938  -19.7761   35.3493 N   0  0  0  0  0  0  0  0  0  0  0  0
   41.4328  -20.9702   35.0337 C   0  0  0  0  0  0  0  0  0  0  0  0
   40.4565  -21.4880   36.0677 C   0  0  0  0  0  0  0  0  0  0  0  0
   42.3153  -18.8419   34.3150 C   0  0  0  0  0  0  0  0  0  0  0  0
   42.6439  -17.5026   34.9945 C   0  0  0  0  0  0  0  0  0  0  0  0
   41.0792  -18.5788   33.4867 C   0  0  0  0  0  0  0  0  0  0  0  0
   36.1168  -24.8443   37.4960 O   0  0  0  0  0  0  0  0  0  0  0  0
   36.7516  -25.2492   38.6902 C   0  0  0  0  0  0  0  0  0  0  0  0
   33.5654  -24.1168   36.8871 O   0  0  0  0  0  0  0  0  0  0  0  0
   32.6530  -24.6274   37.7664 C   0  0  0  0  0  0  0  0  0  0  0  0
   31.4338  -23.8817   38.1043 C   0  0  0  0  0  0  0  0  0  0  0  0
   31.2776  -23.4240   39.5025 C   0  0  0  0  0  0  0  0  0  0  0  0
   32.2120  -23.9120   40.4891 N   0  0  0  0  0  0  0  0  0  0  0  0
   32.5684  -22.8065   41.4054 C   0  0  0  0  0  0  0  0  0  0  0  0
   31.4898  -22.7270   42.4353 C   0  0  0  0  0  0  0  0  0  0  0  0
   31.1604  -24.1923   42.6494 C   0  0  0  0  0  0  0  0  0  0  0  0
   31.5451  -24.8754   41.3800 C   0  0  0  0  0  0  0  0  0  0  0  0
 18 19  1  0  0  0
 19 11  1  0  0  0
 11 12  1  0  0  0
 12 13  1  0  0  0
 13 14  1  0  0  0
 14 15  1  0  0  0
 15 16  1  0  0  0
 16 17  1  0  0  0
 15  1  1  0  0  0
  1  2  2  0  0  0
  2  3  1  0  0  0
  3 20  1  0  0  0
 20 22  1  0  0  0
 22 23  1  0  0  0
 23 24  1  0  0  0
 24 25  1  0  0  0
 25 26  1  0  0  0
 26 27  1  0  0  0
 25 28  1  0  0  0
 28 29  1  0  0  0
 28 30  1  0  0  0
  3  4  2  0  0  0
  4  5  1  0  0  0
  5  6  2  0  0  0
  6 31  1  0  0  0
 31 32  1  0  0  0
  6  7  1  0  0  0
  7 33  1  0  0  0
 33 34  1  0  0  0
 34 35  1  0  0  0
 35 36  1  0  0  0
 36 37  1  0  0  0
 37 38  1  0  0  0
 38 39  1  0  0  0
 39 40  1  0  0  0
 40 41  1  0  0  0
  7  8  2  0  0  0
  8  9  1  0  0  0
  9 10  2  0  0  0
 17 11  1  0  0  0
 10  1  1  0  0  0
 27 22  1  0  0  0
  9  4  1  0  0  0
 41 37  1  0  0  0
 20 21  1  0  0  0
M  END
> <minimizedAffinity>
-4.73642

> <CNNscore>
0.2528112233

> <CNNaffinity>
6.1470055580

> <CNN_VS>
1.5540319681

> <CNNaffinity_variance>
0.1751565933

$$$$
[H]c1c(OC([H])([H])C([H])([H])C([H])([H])N2C([H])([H])C([H])([H])C([H])([H])C2([H])[H])c(OC([H])([H])[H])c([H])c2c(N([H])C3([H])C([H])([H])C([H])([H])N(C([H])(C([H])([H])[H])C([H])([H])[H])C([H])([H])C3([H])[H])nc(N3C([H])([H])C([H])([H])N(C([H])([H])C([H])([H])[H])C([H])([H])C([H])([H])C3([H])[H])nc12


 41 45  0  0  0  0  0  0  0  0999 V2000
   36.0700  -16.8904   36.6364 C   0  0  0  0  0  0  0  0  0  0  0  0
   37.0359  -17.3190   35.8205 N   0  0  0  0  0  0  0  0  0  0  0  0
   37.3981  -18.6288   35.6804 C   0  0  0  0  0  0  0  0  0  0  0  0
   36.7151  -19.5522   36.4352 C   0  0  0  0  0  0  0  0  0  0  0  0
   36.9819  -20.8988   36.3921 C   0  0  0  0  0  0  0  0  0  0  0  0
   36.2880  -21.8383   37.1640 C   0  0  0  0  0  0  0  0  0  0  0  0
   35.2725  -21.4175   38.0269 C   0  0  0  0  0  0  0  0  0  0  0  0
   35.0256  -20.0720   38.0507 C   0  0  0  0  0  0  0  0  0  0  0  0
   35.6928  -19.1412   37.3048 C   0  0  0  0  0  0  0  0  0  0  0  0
   35.4316  -17.8279   37.3520 N   0  0  0  0  0  0  0  0  0  0  0  0
   34.2034  -12.7735   36.4011 N   0  0  0  0  0  0  0  0  0  0  0  0
   35.5732  -12.4418   36.2182 C   0  0  0  0  0  0  0  0  0  0  0  0
   36.5348  -13.2241   37.0721 C   0  0  0  0  0  0  0  0  0  0  0  0
   36.8326  -14.5877   36.4822 C   0  0  0  0  0  0  0  0  0  0  0  0
   35.7263  -15.4997   36.7576 N   0  0  0  0  0  0  0  0  0  0  0  0
   34.3942  -15.1344   37.1146 C   0  0  0  0  0  0  0  0  0  0  0  0
   33.8296  -14.1216   36.1402 C   0  0  0  0  0  0  0  0  0  0  0  0
   32.0040  -12.3357   37.3733 C   0  0  0  0  0  0  0  0  0  0  0  0
   33.5201  -12.1175   37.4628 C   0  0  0  0  0  0  0  0  0  0  0  0
   38.4229  -19.0197   34.8052 N   0  0  0  0  0  0  0  0  0  0  0  0
   38.1896  -19.5703   33.9505 H   0  0  0  0  0  0  0  0  0  0  0  0
   39.8165  -18.7216   34.9832 C   0  0  0  0  0  0  0  0  0  0  0  0
   40.3826  -19.0706   36.3177 C   0  0  0  0  0  0  0  0  0  0  0  0
   41.8040  -18.5662   36.4115 C   0  0  0  0  0  0  0  0  0  0  0  0
   42.3682  -18.1418   35.2079 N   0  0  0  0  0  0  0  0  0  0  0  0
   42.0254  -18.7555   33.9963 C   0  0  0  0  0  0  0  0  0  0  0  0
   40.6545  -19.3938   33.9339 C   0  0  0  0  0  0  0  0  0  0  0  0
   43.0995  -16.9357   35.1622 C   0  0  0  0  0  0  0  0  0  0  0  0
   44.4001  -17.2382   34.4004 C   0  0  0  0  0  0  0  0  0  0  0  0
   43.5361  -16.4615   36.5288 C   0  0  0  0  0  0  0  0  0  0  0  0
   36.6214  -23.1765   37.0593 O   0  0  0  0  0  0  0  0  0  0  0  0
   37.8265  -23.6436   37.6272 C   0  0  0  0  0  0  0  0  0  0  0  0
   34.6398  -22.3914   38.7525 O   0  0  0  0  0  0  0  0  0  0  0  0
   33.3276  -22.7519   38.8738 C   0  0  0  0  0  0  0  0  0  0  0  0
   32.4739  -22.8974   37.6878 C   0  0  0  0  0  0  0  0  0  0  0  0
   31.8166  -21.6795   37.1649 C   0  0  0  0  0  0  0  0  0  0  0  0
   31.6504  -21.5531   35.7362 N   0  0  0  0  0  0  0  0  0  0  0  0
   30.8853  -20.3206   35.4460 C   0  0  0  0  0  0  0  0  0  0  0  0
   31.8596  -19.1888   35.4542 C   0  0  0  0  0  0  0  0  0  0  0  0
   33.0810  -19.8297   34.8226 C   0  0  0  0  0  0  0  0  0  0  0  0
   32.9515  -21.2899   35.1000 C   0  0  0  0  0  0  0  0  0  0  0  0
 18 19  1  0  0  0
 19 11  1  0  0  0
 11 12  1  0  0  0
 12 13  1  0  0  0
 13 14  1  0  0  0
 14 15  1  0  0  0
 15 16  1  0  0  0
 16 17  1  0  0  0
 15  1  1  0  0  0
  1  2  2  0  0  0
  2  3  1  0  0  0
  3 20  1  0  0  0
 20 22  1  0  0  0
 22 23  1  0  0  0
 23 24  1  0  0  0
 24 25  1  0  0  0
 25 26  1  0  0  0
 26 27  1  0  0  0
 25 28  1  0  0  0
 28 29  1  0  0  0
 28 30  1  0  0  0
  3  4  2  0  0  0
  4  5  1  0  0  0
  5  6  2  0  0  0
  6 31  1  0  0  0
 31 32  1  0  0  0
  6  7  1  0  0  0
  7 33  1  0  0  0
 33 34  1  0  0  0
 34 35  1  0  0  0
 35 36  1  0  0  0
 36 37  1  0  0  0
 37 38  1  0  0  0
 38 39  1  0  0  0
 39 40  1  0  0  0
 40 41  1  0  0  0
  7  8  2  0  0  0
  8  9  1  0  0  0
  9 10  2  0  0  0
 17 11  1  0  0  0
 10  1  1  0  0  0
 27 22  1  0  0  0
  9  4  1  0  0  0
 41 37  1  0  0  0
 20 21  1  0  0  0
M  END
> <minimizedAffinity>
-5.99115

> <CNNscore>
0.1954527050

> <CNNaffinity>
6.6098113060

> <CNN_VS>
1.2919055223

> <CNNaffinity_variance>
0.2205651551

$$$$
[H]c1c(OC([H])([H])C([H])([H])C([H])([H])N2C([H])([H])C([H])([H])C([H])([H])C2([H])[H])c(OC([H])([H])[H])c([H])c2c(N([H])C3([H])C([H])([H])C([H])([H])N(C([H])(C([H])([H])[H])C([H])([H])[H])C([H])([H])C3([H])[H])nc(N3C([H])([H])C([H])([H])N(C([H])([H])C([H])([H])[H])C([H])([H])C([H])([H])C3([H])[H])nc12


 41 45  0  0  0  0  0  0  0  0999 V2000
   36.2404  -18.1615   37.0872 C   0  0  0  0  0  0  0  0  0  0  0  0
   37.4911  -18.6206   37.1711 N   0  0  0  0  0  0  0  0  0  0  0  0
   37.8208  -19.9451   37.2311 C   0  0  0  0  0  0  0  0  0  0  0  0
   36.7870  -20.8503   37.2026 C   0  0  0  0  0  0  0  0  0  0  0  0
   36.9800  -22.2089   37.2597 C   0  0  0  0  0  0  0  0  0  0  0  0
   35.9261  -23.1301   37.2343 C   0  0  0  0  0  0  0  0  0  0  0  0
   34.6068  -22.6772   37.1473 C   0  0  0  0  0  0  0  0  0  0  0  0
   34.4416  -21.3203   37.0907 C   0  0  0  0  0  0  0  0  0  0  0  0
   35.4581  -20.4070   37.1147 C   0  0  0  0  0  0  0  0  0  0  0  0
   35.2655  -19.0822   37.0619 N   0  0  0  0  0  0  0  0  0  0  0  0
   35.0028  -13.9583   35.9513 N   0  0  0  0  0  0  0  0  0  0  0  0
   36.2336  -13.6912   36.6097 C   0  0  0  0  0  0  0  0  0  0  0  0
   36.4911  -14.5251   37.8361 C   0  0  0  0  0  0  0  0  0  0  0  0
   37.0292  -15.8968   37.4831 C   0  0  0  0  0  0  0  0  0  0  0  0
   35.9385  -16.7569   37.0333 N   0  0  0  0  0  0  0  0  0  0  0  0
   34.6611  -16.3309   36.5620 C   0  0  0  0  0  0  0  0  0  0  0  0
   34.8044  -15.2850   35.4761 C   0  0  0  0  0  0  0  0  0  0  0  0
   34.2299  -11.9580   37.1243 C   0  0  0  0  0  0  0  0  0  0  0  0
   33.8524  -13.2784   36.4399 C   0  0  0  0  0  0  0  0  0  0  0  0
   39.1558  -20.3682   37.3183 N   0  0  0  0  0  0  0  0  0  0  0  0
   39.5953  -20.4998   38.2552 H   0  0  0  0  0  0  0  0  0  0  0  0
   40.0065  -20.6472   36.1953 C   0  0  0  0  0  0  0  0  0  0  0  0
   39.3408  -20.6150   34.8616 C   0  0  0  0  0  0  0  0  0  0  0  0
   40.3140  -21.0721   33.7997 C   0  0  0  0  0  0  0  0  0  0  0  0
   41.6446  -21.1661   34.2090 N   0  0  0  0  0  0  0  0  0  0  0  0
   42.1668  -20.2872   35.1667 C   0  0  0  0  0  0  0  0  0  0  0  0
   41.1762  -19.7062   36.1525 C   0  0  0  0  0  0  0  0  0  0  0  0
   42.4115  -22.2950   33.8500 C   0  0  0  0  0  0  0  0  0  0  0  0
   41.9073  -22.7491   32.4706 C   0  0  0  0  0  0  0  0  0  0  0  0
   42.1860  -23.4741   34.7677 C   0  0  0  0  0  0  0  0  0  0  0  0
   36.2098  -24.4824   37.2963 O   0  0  0  0  0  0  0  0  0  0  0  0
   36.7079  -25.1456   36.1539 C   0  0  0  0  0  0  0  0  0  0  0  0
   33.6283  -23.6350   37.1303 O   0  0  0  0  0  0  0  0  0  0  0  0
   32.6926  -24.0206   38.0481 C   0  0  0  0  0  0  0  0  0  0  0  0
   33.0295  -24.1102   39.4747 C   0  0  0  0  0  0  0  0  0  0  0  0
   32.7895  -22.9132   40.3105 C   0  0  0  0  0  0  0  0  0  0  0  0
   33.6204  -22.7156   41.4746 N   0  0  0  0  0  0  0  0  0  0  0  0
   35.0181  -22.5009   41.0398 C   0  0  0  0  0  0  0  0  0  0  0  0
   35.1465  -21.0580   40.6769 C   0  0  0  0  0  0  0  0  0  0  0  0
   34.2680  -20.3983   41.7231 C   0  0  0  0  0  0  0  0  0  0  0  0
   33.2789  -21.4403   42.1254 C   0  0  0  0  0  0  0  0  0  0  0  0
 18 19  1  0  0  0
 19 11  1  0  0  0
 11 12  1  0  0  0
 12 13  1  0  0  0
 13 14  1  0  0  0
 14 15  1  0  0  0
 15 16  1  0  0  0
 16 17  1  0  0  0
 15  1  1  0  0  0
  1  2  2  0  0  0
  2  3  1  0  0  0
  3 20  1  0  0  0
 20 22  1  0  0  0
 22 23  1  0  0  0
 23 24  1  0  0  0
 24 25  1  0  0  0
 25 26  1  0  0  0
 26 27  1  0  0  0
 25 28  1  0  0  0
 28 29  1  0  0  0
 28 30  1  0  0  0
  3  4  2  0  0  0
  4  5  1  0  0  0
  5  6  2  0  0  0
  6 31  1  0  0  0
 31 32  1  0  0  0
  6  7  1  0  0  0
  7 33  1  0  0  0
 33 34  1  0  0  0
 34 35  1  0  0  0
 35 36  1  0  0  0
 36 37  1  0  0  0
 37 38  1  0  0  0
 38 39  1  0  0  0
 39 40  1  0  0  0
 40 41  1  0  0  0
  7  8  2  0  0  0
  8  9  1  0  0  0
  9 10  2  0  0  0
 17 11  1  0  0  0
 10  1  1  0  0  0
 27 22  1  0  0  0
  9  4  1  0  0  0
 41 37  1  0  0  0
 20 21  1  0  0  0
M  END
> <minimizedAffinity>
-4.66437

> <CNNscore>
0.1948985457

> <CNNaffinity>
6.0162858963

> <CNN_VS>
1.1725653410

> <CNNaffinity_variance>
0.1015314832

$$$$
[H]c1c(-c2nc3c([H])c(OC([H])([H])C([H])([H])C([H])([H])N4C([H])([H])C([H])([H])C([H])([H])C4([H])[H])c(OC([H])([H])[H])c([H])c3c(N([H])C3([H])C([H])([H])C([H])([H])C34C([H])([H])N(C([H])([H])[H])C([H])([H])C4([H])[H])c2[H])oc(C([H])([H])[H])c1[H]


 38 43  0  0  0  0  0  0  0  0999 V2000
   36.0693  -13.9583   36.6347 C   0  0  0  0  0  0  0  0  0  0  0  0
   36.5365  -15.2309   36.3990 C   0  0  0  0  0  0  0  0  0  0  0  0
   35.6583  -16.2392   36.0801 C   0  0  0  0  0  0  0  0  0  0  0  0
   36.1290  -17.5383   35.8409 C   0  0  0  0  0  0  0  0  0  0  0  0
   35.1703  -18.4926   35.5278 C   0  0  0  0  0  0  0  0  0  0  0  0
   33.8366  -18.1815   35.4572 C   0  0  0  0  0  0  0  0  0  0  0  0
   33.4271  -16.9313   35.6920 N   0  0  0  0  0  0  0  0  0  0  0  0
   34.3000  -15.9628   35.9987 C   0  0  0  0  0  0  0  0  0  0  0  0
   33.8235  -14.6694   36.2385 C   0  0  0  0  0  0  0  0  0  0  0  0
   34.6956  -13.6580   36.5566 C   0  0  0  0  0  0  0  0  0  0  0  0
   32.8405  -19.2191   35.1241 C   0  0  0  0  0  0  0  0  0  0  0  0
   32.9456  -20.2383   34.2093 C   0  0  0  0  0  0  0  0  0  0  0  0
   31.7658  -20.9531   34.2481 C   0  0  0  0  0  0  0  0  0  0  0  0
   30.9838  -20.3266   35.1996 C   0  0  0  0  0  0  0  0  0  0  0  0
   29.6050  -20.7444   35.5960 C   0  0  0  0  0  0  0  0  0  0  0  0
   31.6673  -19.3191   35.6765 O   0  0  0  0  0  0  0  0  0  0  0  0
   38.2025  -13.2984   37.5316 C   0  0  0  0  0  0  0  0  0  0  0  0
   36.9605  -12.9656   36.9512 O   0  0  0  0  0  0  0  0  0  0  0  0
   37.5021  -17.8832   35.8900 N   0  0  0  0  0  0  0  0  0  0  0  0
   38.2278  -17.1600   35.9124 H   0  0  0  0  0  0  0  0  0  0  0  0
   37.8989  -19.2486   35.9038 C   0  0  0  0  0  0  0  0  0  0  0  0
   38.6336  -19.6276   37.1966 C   0  0  0  0  0  0  0  0  0  0  0  0
   39.9411  -19.5364   36.4383 C   0  0  0  0  0  0  0  0  0  0  0  0
   39.1586  -19.5990   35.1722 C   0  0  0  0  0  0  0  0  0  0  0  0
   39.1575  -20.9041   34.4248 C   0  0  0  0  0  0  0  0  0  0  0  0
   40.4060  -20.7513   33.5574 C   0  0  0  0  0  0  0  0  0  0  0  0
   40.5243  -19.3569   33.2606 N   0  0  0  0  0  0  0  0  0  0  0  0
   41.8932  -18.9460   33.5747 C   0  0  0  0  0  0  0  0  0  0  0  0
   39.5733  -18.6341   34.0900 C   0  0  0  0  0  0  0  0  0  0  0  0
   34.3625  -12.3751   36.8066 O   0  0  0  0  0  0  0  0  0  0  0  0
   33.6811  -11.7318   37.7994 C   0  0  0  0  0  0  0  0  0  0  0  0
   32.3658  -12.2938   38.2253 C   0  0  0  0  0  0  0  0  0  0  0  0
   31.3318  -11.8087   37.2004 C   0  0  0  0  0  0  0  0  0  0  0  0
   30.0250  -11.9921   37.7486 N   0  0  0  0  0  0  0  0  0  0  0  0
   29.1759  -10.8410   37.7177 C   0  0  0  0  0  0  0  0  0  0  0  0
   28.1996  -10.9728   38.8617 C   0  0  0  0  0  0  0  0  0  0  0  0
   28.7140  -12.1058   39.7191 C   0  0  0  0  0  0  0  0  0  0  0  0
   30.0259  -12.5038   39.0959 C   0  0  0  0  0  0  0  0  0  0  0  0
 17 18  1  0  0  0
 18  1  1  0  0  0
  1  2  2  0  0  0
  2  3  1  0  0  0
  3  4  2  0  0  0
  4 19  1  0  0  0
 19 21  1  0  0  0
 21 22  1  0  0  0
 22 23  1  0  0  0
 23 24  1  0  0  0
 24 25  1  0  0  0
 25 26  1  0  0  0
 26 27  1  0  0  0
 27 28  1  0  0  0
 27 29  1  0  0  0
  4  5  1  0  0  0
  5  6  2  0  0  0
  6  7  1  0  0  0
  7  8  2  0  0  0
  8  9  1  0  0  0
  9 10  2  0  0  0
 10 30  1  0  0  0
 30 31  1  0  0  0
 31 32  1  0  0  0
 32 33  1  0  0  0
 33 34  1  0  0  0
 34 35  1  0  0  0
 35 36  1  0  0  0
 36 37  1  0  0  0
 37 38  1  0  0  0
  6 11  1  0  0  0
 11 12  2  0  0  0
 12 13  1  0  0  0
 13 14  2  0  0  0
 14 15  1  0  0  0
 14 16  1  0  0  0
 10  1  1  0  0  0
 38 34  1  0  0  0
 16 11  1  0  0  0
  8  3  1  0  0  0
 24 21  1  0  0  0
 29 24  1  0  0  0
 19 20  1  0  0  0
M  END
> <minimizedAffinity>
-9.16903

> <CNNscore>
0.8039073944

> <CNNaffinity>
7.5040106773

> <CNN_VS>
6.0325298309

> <CNNaffinity_variance>
0.0631195158

$$$$
[H]c1c(-c2nc3c([H])c(OC([H])([H])C([H])([H])C([H])([H])N4C([H])([H])C([H])([H])C([H])([H])C4([H])[H])c(OC([H])([H])[H])c([H])c3c(N([H])C3([H])C([H])([H])C([H])([H])C34C([H])([H])N(C([H])([H])[H])C([H])([H])C4([H])[H])c2[H])oc(C([H])([H])[H])c1[H]


 38 43  0  0  0  0  0  0  0  0999 V2000
   32.4971  -20.4753   34.3299 C   0  0  0  0  0  0  0  0  0  0  0  0
   33.8335  -20.1637   34.2299 C   0  0  0  0  0  0  0  0  0  0  0  0
   34.2997  -18.9648   34.7147 C   0  0  0  0  0  0  0  0  0  0  0  0
   35.6605  -18.6416   34.6135 C   0  0  0  0  0  0  0  0  0  0  0  0
   36.0404  -17.4091   35.1279 C   0  0  0  0  0  0  0  0  0  0  0  0
   35.1344  -16.5551   35.7024 C   0  0  0  0  0  0  0  0  0  0  0  0
   33.8455  -16.8993   35.7801 N   0  0  0  0  0  0  0  0  0  0  0  0
   33.4125  -18.0738   35.3038 C   0  0  0  0  0  0  0  0  0  0  0  0
   32.0532  -18.3891   35.4058 C   0  0  0  0  0  0  0  0  0  0  0  0
   31.5817  -19.5852   34.9242 C   0  0  0  0  0  0  0  0  0  0  0  0
   35.5687  -15.2497   36.2385 C   0  0  0  0  0  0  0  0  0  0  0  0
   34.8247  -14.1072   36.4049 C   0  0  0  0  0  0  0  0  0  0  0  0
   35.6574  -13.1447   36.9385 C   0  0  0  0  0  0  0  0  0  0  0  0
   36.8897  -13.7548   37.0747 C   0  0  0  0  0  0  0  0  0  0  0  0
   38.1210  -13.1034   37.6156 C   0  0  0  0  0  0  0  0  0  0  0  0
   36.7743  -14.9854   36.6483 O   0  0  0  0  0  0  0  0  0  0  0  0
   32.0446  -22.8133   34.6756 C   0  0  0  0  0  0  0  0  0  0  0  0
   32.0509  -21.6759   33.8410 O   0  0  0  0  0  0  0  0  0  0  0  0
   36.6203  -19.5120   34.0409 N   0  0  0  0  0  0  0  0  0  0  0  0
   36.3383  -20.2628   33.4030 H   0  0  0  0  0  0  0  0  0  0  0  0
   38.0003  -19.3603   34.3483 C   0  0  0  0  0  0  0  0  0  0  0  0
   38.8965  -20.2018   33.4298 C   0  0  0  0  0  0  0  0  0  0  0  0
   39.0361  -21.2112   34.5499 C   0  0  0  0  0  0  0  0  0  0  0  0
   38.5365  -20.1691   35.4899 C   0  0  0  0  0  0  0  0  0  0  0  0
   39.5490  -19.4922   36.3723 C   0  0  0  0  0  0  0  0  0  0  0  0
   39.5867  -20.4443   37.5667 C   0  0  0  0  0  0  0  0  0  0  0  0
   38.2719  -20.9951   37.6867 N   0  0  0  0  0  0  0  0  0  0  0  0
   38.4016  -22.4498   37.7784 C   0  0  0  0  0  0  0  0  0  0  0  0
   37.5151  -20.6255   36.5012 C   0  0  0  0  0  0  0  0  0  0  0  0
   30.3005  -20.0049   34.9648 O   0  0  0  0  0  0  0  0  0  0  0  0
   29.3454  -20.0940   35.9362 C   0  0  0  0  0  0  0  0  0  0  0  0
   28.6555  -21.4041   36.1232 C   0  0  0  0  0  0  0  0  0  0  0  0
   29.4673  -22.1791   37.1698 C   0  0  0  0  0  0  0  0  0  0  0  0
   29.0988  -23.5581   37.1038 N   0  0  0  0  0  0  0  0  0  0  0  0
   28.7161  -24.0332   35.8096 C   0  0  0  0  0  0  0  0  0  0  0  0
   27.7642  -25.1863   36.0184 C   0  0  0  0  0  0  0  0  0  0  0  0
   27.3969  -25.1624   37.4840 C   0  0  0  0  0  0  0  0  0  0  0  0
   28.0623  -23.9285   38.0341 C   0  0  0  0  0  0  0  0  0  0  0  0
 17 18  1  0  0  0
 18  1  1  0  0  0
  1  2  2  0  0  0
  2  3  1  0  0  0
  3  4  2  0  0  0
  4 19  1  0  0  0
 19 21  1  0  0  0
 21 22  1  0  0  0
 22 23  1  0  0  0
 23 24  1  0  0  0
 24 25  1  0  0  0
 25 26  1  0  0  0
 26 27  1  0  0  0
 27 28  1  0  0  0
 27 29  1  0  0  0
  4  5  1  0  0  0
  5  6  2  0  0  0
  6  7  1  0  0  0
  7  8  2  0  0  0
  8  9  1  0  0  0
  9 10  2  0  0  0
 10 30  1  0  0  0
 30 31  1  0  0  0
 31 32  1  0  0  0
 32 33  1  0  0  0
 33 34  1  0  0  0
 34 35  1  0  0  0
 35 36  1  0  0  0
 36 37  1  0  0  0
 37 38  1  0  0  0
  6 11  1  0  0  0
 11 12  2  0  0  0
 12 13  1  0  0  0
 13 14  2  0  0  0
 14 15  1  0  0  0
 14 16  1  0  0  0
 10  1  1  0  0  0
 38 34  1  0  0  0
 16 11  1  0  0  0
  8  3  1  0  0  0
 24 21  1  0  0  0
 29 24  1  0  0  0
 19 20  1  0  0  0
M  END
> <minimizedAffinity>
-7.24713

> <CNNscore>
0.5324156880

> <CNNaffinity>
6.5067391396

> <CNN_VS>
3.4642899036

> <CNNaffinity_variance>
0.1646926403

$$$$
[H]c1c(-c2nc3c([H])c(OC([H])([H])C([H])([H])C([H])([H])N4C([H])([H])C([H])([H])C([H])([H])C4([H])[H])c(OC([H])([H])[H])c([H])c3c(N([H])C3([H])C([H])([H])C([H])([H])C34C([H])([H])N(C([H])([H])[H])C([H])([H])C4([H])[H])c2[H])oc(C([H])([H])[H])c1[H]


 38 43  0  0  0  0  0  0  0  0999 V2000
   39.1950  -19.2694   36.6871 C   0  0  0  0  0  0  0  0  0  0  0  0
   38.3258  -18.2993   36.2435 C   0  0  0  0  0  0  0  0  0  0  0  0
   36.9846  -18.5769   36.1270 C   0  0  0  0  0  0  0  0  0  0  0  0
   36.0948  -17.5924   35.6735 C   0  0  0  0  0  0  0  0  0  0  0  0
   34.7596  -17.9629   35.5853 C   0  0  0  0  0  0  0  0  0  0  0  0
   34.3349  -19.2223   35.9225 C   0  0  0  0  0  0  0  0  0  0  0  0
   35.2138  -20.1334   36.3507 N   0  0  0  0  0  0  0  0  0  0  0  0
   36.5164  -19.8412   36.4594 C   0  0  0  0  0  0  0  0  0  0  0  0
   37.3991  -20.8287   36.9102 C   0  0  0  0  0  0  0  0  0  0  0  0
   38.7395  -20.5573   37.0294 C   0  0  0  0  0  0  0  0  0  0  0  0
   32.9082  -19.5871   35.8157 C   0  0  0  0  0  0  0  0  0  0  0  0
   31.9182  -18.9541   35.1043 C   0  0  0  0  0  0  0  0  0  0  0  0
   30.7483  -19.6573   35.3069 C   0  0  0  0  0  0  0  0  0  0  0  0
   31.0845  -20.7027   36.1456 C   0  0  0  0  0  0  0  0  0  0  0  0
   30.1389  -21.7441   36.6498 C   0  0  0  0  0  0  0  0  0  0  0  0
   32.3619  -20.6078   36.4082 O   0  0  0  0  0  0  0  0  0  0  0  0
   41.3259  -18.8893   35.6358 C   0  0  0  0  0  0  0  0  0  0  0  0
   40.5292  -18.9736   36.7970 O   0  0  0  0  0  0  0  0  0  0  0  0
   36.5037  -16.2790   35.3353 N   0  0  0  0  0  0  0  0  0  0  0  0
   36.5680  -15.9814   34.3568 H   0  0  0  0  0  0  0  0  0  0  0  0
   36.8392  -15.3469   36.3554 C   0  0  0  0  0  0  0  0  0  0  0  0
   36.7005  -15.9478   37.7606 C   0  0  0  0  0  0  0  0  0  0  0  0
   35.3815  -15.2179   37.9038 C   0  0  0  0  0  0  0  0  0  0  0  0
   35.7821  -14.3620   36.7523 C   0  0  0  0  0  0  0  0  0  0  0  0
   36.2495  -12.9659   37.0592 C   0  0  0  0  0  0  0  0  0  0  0  0
   34.9252  -12.2038   37.0678 C   0  0  0  0  0  0  0  0  0  0  0  0
   34.0771  -12.8558   36.1180 N   0  0  0  0  0  0  0  0  0  0  0  0
   32.7951  -13.1234   36.7709 C   0  0  0  0  0  0  0  0  0  0  0  0
   34.7147  -14.1006   35.7196 C   0  0  0  0  0  0  0  0  0  0  0  0
   39.6870  -21.4191   37.4526 O   0  0  0  0  0  0  0  0  0  0  0  0
   40.0817  -21.8970   38.6690 C   0  0  0  0  0  0  0  0  0  0  0  0
   40.2192  -20.9252   39.7932 C   0  0  0  0  0  0  0  0  0  0  0  0
   41.1684  -21.5691   40.8128 C   0  0  0  0  0  0  0  0  0  0  0  0
   42.2771  -20.6922   41.0215 N   0  0  0  0  0  0  0  0  0  0  0  0
   42.0135  -19.3025   40.8066 C   0  0  0  0  0  0  0  0  0  0  0  0
   43.3165  -18.6559   40.4022 C   0  0  0  0  0  0  0  0  0  0  0  0
   44.2728  -19.7906   40.1165 C   0  0  0  0  0  0  0  0  0  0  0  0
   43.4478  -21.0425   40.2576 C   0  0  0  0  0  0  0  0  0  0  0  0
 17 18  1  0  0  0
 18  1  1  0  0  0
  1  2  2  0  0  0
  2  3  1  0  0  0
  3  4  2  0  0  0
  4 19  1  0  0  0
 19 21  1  0  0  0
 21 22  1  0  0  0
 22 23  1  0  0  0
 23 24  1  0  0  0
 24 25  1  0  0  0
 25 26  1  0  0  0
 26 27  1  0  0  0
 27 28  1  0  0  0
 27 29  1  0  0  0
  4  5  1  0  0  0
  5  6  2  0  0  0
  6  7  1  0  0  0
  7  8  2  0  0  0
  8  9  1  0  0  0
  9 10  2  0  0  0
 10 30  1  0  0  0
 30 31  1  0  0  0
 31 32  1  0  0  0
 32 33  1  0  0  0
 33 34  1  0  0  0
 34 35  1  0  0  0
 35 36  1  0  0  0
 36 37  1  0  0  0
 37 38  1  0  0  0
  6 11  1  0  0  0
 11 12  2  0  0  0
 12 13  1  0  0  0
 13 14  2  0  0  0
 14 15  1  0  0  0
 14 16  1  0  0  0
 10  1  1  0  0  0
 38 34  1  0  0  0
 16 11  1  0  0  0
  8  3  1  0  0  0
 24 21  1  0  0  0
 29 24  1  0  0  0
 19 20  1  0  0  0
M  END
> <minimizedAffinity>
-6.21179

> <CNNscore>
0.2539516389

> <CNNaffinity>
6.2649879456

> <CNN_VS>
1.5910040140

> <CNNaffinity_variance>
0.0676809549

$$$$
[H]c1c(-c2nc3c([H])c(OC([H])([H])C([H])([H])C([H])([H])N4C([H])([H])C([H])([H])C([H])([H])C4([H])[H])c(OC([H])([H])[H])c([H])c3c(N([H])C3([H])C([H])([H])C([H])([H])C34C([H])([H])N(C([H])([H])[H])C([H])([H])C4([H])[H])c2[H])oc(C([H])([H])[H])c1[H]


 38 43  0  0  0  0  0  0  0  0999 V2000
   36.6120  -22.3812   37.5382 C   0  0  0  0  0  0  0  0  0  0  0  0
   35.5258  -21.5901   37.2422 C   0  0  0  0  0  0  0  0  0  0  0  0
   35.6761  -20.2286   37.1264 C   0  0  0  0  0  0  0  0  0  0  0  0
   34.5720  -19.4177   36.8267 C   0  0  0  0  0  0  0  0  0  0  0  0
   34.8173  -18.0543   36.7316 C   0  0  0  0  0  0  0  0  0  0  0  0
   36.0702  -17.5302   36.9209 C   0  0  0  0  0  0  0  0  0  0  0  0
   37.0975  -18.3361   37.2051 N   0  0  0  0  0  0  0  0  0  0  0  0
   36.9297  -19.6608   37.3108 C   0  0  0  0  0  0  0  0  0  0  0  0
   38.0350  -20.4639   37.6123 C   0  0  0  0  0  0  0  0  0  0  0  0
   37.8914  -21.8243   37.7284 C   0  0  0  0  0  0  0  0  0  0  0  0
   36.2990  -16.0754   36.8154 C   0  0  0  0  0  0  0  0  0  0  0  0
   35.5474  -15.1414   36.1451 C   0  0  0  0  0  0  0  0  0  0  0  0
   36.1498  -13.9138   36.3311 C   0  0  0  0  0  0  0  0  0  0  0  0
   37.2582  -14.1604   37.1185 C   0  0  0  0  0  0  0  0  0  0  0  0
   38.2314  -13.1280   37.5877 C   0  0  0  0  0  0  0  0  0  0  0  0
   37.2916  -15.4432   37.3689 O   0  0  0  0  0  0  0  0  0  0  0  0
   35.3084  -24.2491   38.3143 C   0  0  0  0  0  0  0  0  0  0  0  0
   36.4424  -23.7372   37.6493 O   0  0  0  0  0  0  0  0  0  0  0  0
   33.2710  -19.9342   36.6093 N   0  0  0  0  0  0  0  0  0  0  0  0
   32.5478  -19.8653   37.3320 H   0  0  0  0  0  0  0  0  0  0  0  0
   32.9466  -20.5662   35.3775 C   0  0  0  0  0  0  0  0  0  0  0  0
   32.2230  -19.6190   34.4109 C   0  0  0  0  0  0  0  0  0  0  0  0
   30.9183  -20.2894   34.7868 C   0  0  0  0  0  0  0  0  0  0  0  0
   31.7126  -21.4156   35.3523 C   0  0  0  0  0  0  0  0  0  0  0  0
   31.7881  -22.6817   34.5440 C   0  0  0  0  0  0  0  0  0  0  0  0
   30.5399  -23.4184   35.0276 C   0  0  0  0  0  0  0  0  0  0  0  0
   30.3506  -23.0398   36.3941 N   0  0  0  0  0  0  0  0  0  0  0  0
   28.9596  -22.6140   36.5530 C   0  0  0  0  0  0  0  0  0  0  0  0
   31.2559  -21.9409   36.6901 C   0  0  0  0  0  0  0  0  0  0  0  0
   38.8751  -22.7027   38.0116 O   0  0  0  0  0  0  0  0  0  0  0  0
   40.2023  -22.7957   37.7054 C   0  0  0  0  0  0  0  0  0  0  0  0
   41.1778  -22.1019   38.5965 C   0  0  0  0  0  0  0  0  0  0  0  0
   40.8013  -22.4815   40.0349 C   0  0  0  0  0  0  0  0  0  0  0  0
   41.1152  -23.8604   40.2402 N   0  0  0  0  0  0  0  0  0  0  0  0
   40.2220  -24.5752   41.0993 C   0  0  0  0  0  0  0  0  0  0  0  0
   41.0083  -25.7003   41.7279 C   0  0  0  0  0  0  0  0  0  0  0  0
   42.4594  -25.4210   41.4115 C   0  0  0  0  0  0  0  0  0  0  0  0
   42.4578  -24.0873   40.7123 C   0  0  0  0  0  0  0  0  0  0  0  0
 17 18  1  0  0  0
 18  1  1  0  0  0
  1  2  2  0  0  0
  2  3  1  0  0  0
  3  4  2  0  0  0
  4 19  1  0  0  0
 19 21  1  0  0  0
 21 22  1  0  0  0
 22 23  1  0  0  0
 23 24  1  0  0  0
 24 25  1  0  0  0
 25 26  1  0  0  0
 26 27  1  0  0  0
 27 28  1  0  0  0
 27 29  1  0  0  0
  4  5  1  0  0  0
  5  6  2  0  0  0
  6  7  1  0  0  0
  7  8  2  0  0  0
  8  9  1  0  0  0
  9 10  2  0  0  0
 10 30  1  0  0  0
 30 31  1  0  0  0
 31 32  1  0  0  0
 32 33  1  0  0  0
 33 34  1  0  0  0
 34 35  1  0  0  0
 35 36  1  0  0  0
 36 37  1  0  0  0
 37 38  1  0  0  0
  6 11  1  0  0  0
 11 12  2  0  0  0
 12 13  1  0  0  0
 13 14  2  0  0  0
 14 15  1  0  0  0
 14 16  1  0  0  0
 10  1  1  0  0  0
 38 34  1  0  0  0
 16 11  1  0  0  0
  8  3  1  0  0  0
 24 21  1  0  0  0
 29 24  1  0  0  0
 19 20  1  0  0  0
M  END
> <minimizedAffinity>
-5.25008

> <CNNscore>
0.2477798611

> <CNNaffinity>
5.7852163315

> <CNN_VS>
1.4334601164

> <CNNaffinity_variance>
0.1292506903

$$$$
[H]c1c(-c2nc3c([H])c(OC([H])([H])C([H])([H])C([H])([H])N4C([H])([H])C([H])([H])C([H])([H])C4([H])[H])c(OC([H])([H])[H])c([H])c3c(N([H])C3([H])C([H])([H])C([H])([H])C34C([H])([H])N(C([H])([H])[H])C([H])([H])C4([H])[H])c2[H])oc(C([H])([H])[H])c1[H]


 38 43  0  0  0  0  0  0  0  0999 V2000
   35.9612  -22.0532   37.1600 C   0  0  0  0  0  0  0  0  0  0  0  0
   37.0157  -21.2022   36.9211 C   0  0  0  0  0  0  0  0  0  0  0  0
   36.8237  -19.8414   36.9527 C   0  0  0  0  0  0  0  0  0  0  0  0
   37.8947  -18.9698   36.7081 C   0  0  0  0  0  0  0  0  0  0  0  0
   37.6074  -17.6123   36.7584 C   0  0  0  0  0  0  0  0  0  0  0  0
   36.3457  -17.1499   37.0318 C   0  0  0  0  0  0  0  0  0  0  0  0
   35.3509  -18.0126   37.2594 N   0  0  0  0  0  0  0  0  0  0  0  0
   35.5601  -19.3351   37.2265 C   0  0  0  0  0  0  0  0  0  0  0  0
   34.4869  -20.1992   37.4691 C   0  0  0  0  0  0  0  0  0  0  0  0
   34.6724  -21.5592   37.4397 C   0  0  0  0  0  0  0  0  0  0  0  0
   36.0709  -15.6999   37.0760 C   0  0  0  0  0  0  0  0  0  0  0  0
   36.9515  -14.6730   37.3141 C   0  0  0  0  0  0  0  0  0  0  0  0
   36.2379  -13.4933   37.2555 C   0  0  0  0  0  0  0  0  0  0  0  0
   34.9349  -13.8616   36.9801 C   0  0  0  0  0  0  0  0  0  0  0  0
   33.7860  -12.9193   36.8221 C   0  0  0  0  0  0  0  0  0  0  0  0
   34.9006  -15.1653   36.8865 O   0  0  0  0  0  0  0  0  0  0  0  0
   36.8792  -24.0339   38.1723 C   0  0  0  0  0  0  0  0  0  0  0  0
   36.1722  -23.4074   37.1244 O   0  0  0  0  0  0  0  0  0  0  0  0
   39.2110  -19.4199   36.4407 N   0  0  0  0  0  0  0  0  0  0  0  0
   39.7682  -19.8831   37.1654 H   0  0  0  0  0  0  0  0  0  0  0  0
   39.7866  -19.2304   35.1544 C   0  0  0  0  0  0  0  0  0  0  0  0
   38.7247  -19.0067   34.0694 C   0  0  0  0  0  0  0  0  0  0  0  0
   38.9097  -20.4474   33.6414 C   0  0  0  0  0  0  0  0  0  0  0  0
   40.1909  -20.4610   34.4013 C   0  0  0  0  0  0  0  0  0  0  0  0
   41.4654  -20.3715   33.6078 C   0  0  0  0  0  0  0  0  0  0  0  0
   41.7239  -21.8441   33.2929 C   0  0  0  0  0  0  0  0  0  0  0  0
   41.2119  -22.5907   34.4006 N   0  0  0  0  0  0  0  0  0  0  0  0
   40.3492  -23.6466   33.8694 C   0  0  0  0  0  0  0  0  0  0  0  0
   40.4474  -21.6853   35.2435 C   0  0  0  0  0  0  0  0  0  0  0  0
   33.7233  -22.4924   37.6582 O   0  0  0  0  0  0  0  0  0  0  0  0
   32.7954  -23.1241   36.8813 C   0  0  0  0  0  0  0  0  0  0  0  0
   31.7436  -22.2911   36.2278 C   0  0  0  0  0  0  0  0  0  0  0  0
   32.1543  -22.1452   34.7564 C   0  0  0  0  0  0  0  0  0  0  0  0
   32.0672  -20.7660   34.3927 N   0  0  0  0  0  0  0  0  0  0  0  0
   33.2857  -20.1697   33.9384 C   0  0  0  0  0  0  0  0  0  0  0  0
   33.2073  -18.6947   34.2511 C   0  0  0  0  0  0  0  0  0  0  0  0
   32.0139  -18.5257   35.1626 C   0  0  0  0  0  0  0  0  0  0  0  0
   31.5234  -19.9245   35.4286 C   0  0  0  0  0  0  0  0  0  0  0  0
 17 18  1  0  0  0
 18  1  1  0  0  0
  1  2  2  0  0  0
  2  3  1  0  0  0
  3  4  2  0  0  0
  4 19  1  0  0  0
 19 21  1  0  0  0
 21 22  1  0  0  0
 22 23  1  0  0  0
 23 24  1  0  0  0
 24 25  1  0  0  0
 25 26  1  0  0  0
 26 27  1  0  0  0
 27 28  1  0  0  0
 27 29  1  0  0  0
  4  5  1  0  0  0
  5  6  2  0  0  0
  6  7  1  0  0  0
  7  8  2  0  0  0
  8  9  1  0  0  0
  9 10  2  0  0  0
 10 30  1  0  0  0
 30 31  1  0  0  0
 31 32  1  0  0  0
 32 33  1  0  0  0
 33 34  1  0  0  0
 34 35  1  0  0  0
 35 36  1  0  0  0
 36 37  1  0  0  0
 37 38  1  0  0  0
  6 11  1  0  0  0
 11 12  2  0  0  0
 12 13  1  0  0  0
 13 14  2  0  0  0
 14 15  1  0  0  0
 14 16  1  0  0  0
 10  1  1  0  0  0
 38 34  1  0  0  0
 16 11  1  0  0  0
  8  3  1  0  0  0
 24 21  1  0  0  0
 29 24  1  0  0  0
 19 20  1  0  0  0
M  END
> <minimizedAffinity>
-6.48702

> <CNNscore>
0.2222155184

> <CNNaffinity>
6.2989163399

> <CNN_VS>
1.3997169733

> <CNNaffinity_variance>
0.2034281790

$$$$
[H]c1c(-c2nc3c([H])c(OC([H])([H])C([H])([H])C([H])([H])N4C([H])([H])C([H])([H])C([H])([H])C4([H])[H])c(OC([H])([H])[H])c([H])c3c(N([H])C3([H])C([H])([H])C([H])([H])C34C([H])([H])N(C([H])([H])[H])C([H])([H])C4([H])[H])c2[H])oc(C([H])([H])[H])c1[H]


 38 43  0  0  0  0  0  0  0  0999 V2000
   34.3705  -22.8103   36.7362 C   0  0  0  0  0  0  0  0  0  0  0  0
   35.4082  -22.0394   37.2077 C   0  0  0  0  0  0  0  0  0  0  0  0
   35.3926  -20.6770   37.0252 C   0  0  0  0  0  0  0  0  0  0  0  0
   36.4486  -19.8870   37.5021 C   0  0  0  0  0  0  0  0  0  0  0  0
   36.3492  -18.5216   37.2705 C   0  0  0  0  0  0  0  0  0  0  0  0
   35.2777  -17.9762   36.6111 C   0  0  0  0  0  0  0  0  0  0  0  0
   34.2907  -18.7626   36.1715 N   0  0  0  0  0  0  0  0  0  0  0  0
   34.3242  -20.0879   36.3623 C   0  0  0  0  0  0  0  0  0  0  0  0
   33.2686  -20.8706   35.8820 C   0  0  0  0  0  0  0  0  0  0  0  0
   33.2780  -22.2316   36.0619 C   0  0  0  0  0  0  0  0  0  0  0  0
   35.2017  -16.5203   36.3779 C   0  0  0  0  0  0  0  0  0  0  0  0
   36.2256  -15.6474   36.1016 C   0  0  0  0  0  0  0  0  0  0  0  0
   35.6726  -14.3908   35.9621 C   0  0  0  0  0  0  0  0  0  0  0  0
   34.3158  -14.5586   36.1630 C   0  0  0  0  0  0  0  0  0  0  0  0
   33.2938  -13.4697   36.1115 C   0  0  0  0  0  0  0  0  0  0  0  0
   34.1022  -15.8262   36.4020 O   0  0  0  0  0  0  0  0  0  0  0  0
   35.6307  -24.8577   36.8391 C   0  0  0  0  0  0  0  0  0  0  0  0
   34.4035  -24.1674   36.9281 O   0  0  0  0  0  0  0  0  0  0  0  0
   37.5583  -20.4220   38.2013 N   0  0  0  0  0  0  0  0  0  0  0  0
   37.4363  -20.8988   39.1001 H   0  0  0  0  0  0  0  0  0  0  0  0
   38.8700  -20.3006   37.6659 C   0  0  0  0  0  0  0  0  0  0  0  0
   39.1536  -21.3462   36.5791 C   0  0  0  0  0  0  0  0  0  0  0  0
   39.9370  -22.1435   37.6006 C   0  0  0  0  0  0  0  0  0  0  0  0
   39.9857  -20.9210   38.4503 C   0  0  0  0  0  0  0  0  0  0  0  0
   41.2813  -20.1581   38.4892 C   0  0  0  0  0  0  0  0  0  0  0  0
   42.0178  -20.8797   39.6167 C   0  0  0  0  0  0  0  0  0  0  0  0
   41.0157  -21.3197   40.5380 N   0  0  0  0  0  0  0  0  0  0  0  0
   41.2471  -22.7392   40.8082 C   0  0  0  0  0  0  0  0  0  0  0  0
   39.7140  -21.1253   39.9195 C   0  0  0  0  0  0  0  0  0  0  0  0
   32.3236  -23.0910   35.6498 O   0  0  0  0  0  0  0  0  0  0  0  0
   31.1977  -23.6225   36.2099 C   0  0  0  0  0  0  0  0  0  0  0  0
   30.0215  -23.8657   35.3242 C   0  0  0  0  0  0  0  0  0  0  0  0
   28.8284  -24.1410   36.2491 C   0  0  0  0  0  0  0  0  0  0  0  0
   28.1280  -22.9149   36.4682 N   0  0  0  0  0  0  0  0  0  0  0  0
   28.7373  -21.7479   35.9081 C   0  0  0  0  0  0  0  0  0  0  0  0
   28.3107  -20.5704   36.7512 C   0  0  0  0  0  0  0  0  0  0  0  0
   27.6650  -21.1552   37.9860 C   0  0  0  0  0  0  0  0  0  0  0  0
   27.8490  -22.6442   37.8559 C   0  0  0  0  0  0  0  0  0  0  0  0
 17 18  1  0  0  0
 18  1  1  0  0  0
  1  2  2  0  0  0
  2  3  1  0  0  0
  3  4  2  0  0  0
  4 19  1  0  0  0
 19 21  1  0  0  0
 21 22  1  0  0  0
 22 23  1  0  0  0
 23 24  1  0  0  0
 24 25  1  0  0  0
 25 26  1  0  0  0
 26 27  1  0  0  0
 27 28  1  0  0  0
 27 29  1  0  0  0
  4  5  1  0  0  0
  5  6  2  0  0  0
  6  7  1  0  0  0
  7  8  2  0  0  0
  8  9  1  0  0  0
  9 10  2  0  0  0
 10 30  1  0  0  0
 30 31  1  0  0  0
 31 32  1  0  0  0
 32 33  1  0  0  0
 33 34  1  0  0  0
 34 35  1  0  0  0
 35 36  1  0  0  0
 36 37  1  0  0  0
 37 38  1  0  0  0
  6 11  1  0  0  0
 11 12  2  0  0  0
 12 13  1  0  0  0
 13 14  2  0  0  0
 14 15  1  0  0  0
 14 16  1  0  0  0
 10  1  1  0  0  0
 38 34  1  0  0  0
 16 11  1  0  0  0
  8  3  1  0  0  0
 24 21  1  0  0  0
 29 24  1  0  0  0
 19 20  1  0  0  0
M  END
> <minimizedAffinity>
-5.51192

> <CNNscore>
0.2211395502

> <CNNaffinity>
5.7252106667

> <CNN_VS>
1.2660704851

> <CNNaffinity_variance>
0.1547374427

$$$$
[H]c1c(-c2nc3c([H])c(OC([H])([H])C([H])([H])C([H])([H])N4C([H])([H])C([H])([H])C([H])([H])C4([H])[H])c(OC([H])([H])[H])c([H])c3c(N([H])C3([H])C([H])([H])C([H])([H])C34C([H])([H])N(C([H])([H])[H])C([H])([H])C4([H])[H])c2[H])oc(C([H])([H])[H])c1[H]


 38 43  0  0  0  0  0  0  0  0999 V2000
   39.0053  -19.3830   36.8217 C   0  0  0  0  0  0  0  0  0  0  0  0
   38.2105  -18.3718   36.3327 C   0  0  0  0  0  0  0  0  0  0  0  0
   36.8663  -18.5843   36.1394 C   0  0  0  0  0  0  0  0  0  0  0  0
   36.0522  -17.5576   35.6395 C   0  0  0  0  0  0  0  0  0  0  0  0
   34.7079  -17.8631   35.4743 C   0  0  0  0  0  0  0  0  0  0  0  0
   34.2045  -19.1009   35.7825 C   0  0  0  0  0  0  0  0  0  0  0  0
   35.0128  -20.0535   36.2568 N   0  0  0  0  0  0  0  0  0  0  0  0
   36.3196  -19.8247   36.4404 C   0  0  0  0  0  0  0  0  0  0  0  0
   37.1266  -20.8539   36.9372 C   0  0  0  0  0  0  0  0  0  0  0  0
   38.4697  -20.6476   37.1332 C   0  0  0  0  0  0  0  0  0  0  0  0
   32.7703  -19.3962   35.5936 C   0  0  0  0  0  0  0  0  0  0  0  0
   31.8727  -18.7662   34.7665 C   0  0  0  0  0  0  0  0  0  0  0  0
   30.6521  -19.3892   34.9286 C   0  0  0  0  0  0  0  0  0  0  0  0
   30.8656  -20.3859   35.8616 C   0  0  0  0  0  0  0  0  0  0  0  0
   29.8269  -21.3353   36.3644 C   0  0  0  0  0  0  0  0  0  0  0  0
   32.1241  -20.3396   36.2130 O   0  0  0  0  0  0  0  0  0  0  0  0
   41.1799  -18.9383   35.8922 C   0  0  0  0  0  0  0  0  0  0  0  0
   40.3438  -19.1520   37.0083 O   0  0  0  0  0  0  0  0  0  0  0  0
   36.5424  -16.2652   35.3295 N   0  0  0  0  0  0  0  0  0  0  0  0
   36.6808  -15.9720   34.3573 H   0  0  0  0  0  0  0  0  0  0  0  0
   36.8578  -15.3489   36.3700 C   0  0  0  0  0  0  0  0  0  0  0  0
   36.6932  -15.9716   37.7629 C   0  0  0  0  0  0  0  0  0  0  0  0
   35.3711  -15.2448   37.8925 C   0  0  0  0  0  0  0  0  0  0  0  0
   35.7926  -14.3709   36.7621 C   0  0  0  0  0  0  0  0  0  0  0  0
   36.2529  -12.9794   37.0994 C   0  0  0  0  0  0  0  0  0  0  0  0
   34.9280  -12.2184   37.0948 C   0  0  0  0  0  0  0  0  0  0  0  0
   34.0985  -12.8560   36.1192 N   0  0  0  0  0  0  0  0  0  0  0  0
   32.8047  -13.1345   36.7437 C   0  0  0  0  0  0  0  0  0  0  0  0
   34.7446  -14.0941   35.7137 C   0  0  0  0  0  0  0  0  0  0  0  0
   39.3489  -21.5544   37.6066 O   0  0  0  0  0  0  0  0  0  0  0  0
   39.7966  -21.9069   38.8472 C   0  0  0  0  0  0  0  0  0  0  0  0
   38.8112  -22.4759   39.8128 C   0  0  0  0  0  0  0  0  0  0  0  0
   38.8480  -21.5757   41.0551 C   0  0  0  0  0  0  0  0  0  0  0  0
   37.5219  -21.4604   41.5748 N   0  0  0  0  0  0  0  0  0  0  0  0
   37.1354  -22.4724   42.5093 C   0  0  0  0  0  0  0  0  0  0  0  0
   35.6351  -22.6154   42.4209 C   0  0  0  0  0  0  0  0  0  0  0  0
   35.2156  -21.8450   41.1905 C   0  0  0  0  0  0  0  0  0  0  0  0
   36.5031  -21.3863   40.5582 C   0  0  0  0  0  0  0  0  0  0  0  0
 17 18  1  0  0  0
 18  1  1  0  0  0
  1  2  2  0  0  0
  2  3  1  0  0  0
  3  4  2  0  0  0
  4 19  1  0  0  0
 19 21  1  0  0  0
 21 22  1  0  0  0
 22 23  1  0  0  0
 23 24  1  0  0  0
 24 25  1  0  0  0
 25 26  1  0  0  0
 26 27  1  0  0  0
 27 28  1  0  0  0
 27 29  1  0  0  0
  4  5  1  0  0  0
  5  6  2  0  0  0
  6  7  1  0  0  0
  7  8  2  0  0  0
  8  9  1  0  0  0
  9 10  2  0  0  0
 10 30  1  0  0  0
 30 31  1  0  0  0
 31 32  1  0  0  0
 32 33  1  0  0  0
 33 34  1  0  0  0
 34 35  1  0  0  0
 35 36  1  0  0  0
 36 37  1  0  0  0
 37 38  1  0  0  0
  6 11  1  0  0  0
 11 12  2  0  0  0
 12 13  1  0  0  0
 13 14  2  0  0  0
 14 15  1  0  0  0
 14 16  1  0  0  0
 10  1  1  0  0  0
 38 34  1  0  0  0
 16 11  1  0  0  0
  8  3  1  0  0  0
 24 21  1  0  0  0
 29 24  1  0  0  0
 19 20  1  0  0  0
M  END
> <minimizedAffinity>
-5.77428

> <CNNscore>
0.2199003845

> <CNNaffinity>
6.2566571236

> <CNN_VS>
1.3758412600

> <CNNaffinity_variance>
0.1503354907

$$$$
[H]c1c(-c2nc3c([H])c(OC([H])([H])C([H])([H])C([H])([H])N4C([H])([H])C([H])([H])C([H])([H])C4([H])[H])c(OC([H])([H])[H])c([H])c3c(N([H])C3([H])C([H])([H])C([H])([H])C34C([H])([H])N(C([H])([H])[H])C([H])([H])C4([H])[H])c2[H])oc(C([H])([H])[H])c1[H]


 38 43  0  0  0  0  0  0  0  0999 V2000
   36.0170  -22.3197   37.1737 C   0  0  0  0  0  0  0  0  0  0  0  0
   37.0732  -21.4512   37.0206 C   0  0  0  0  0  0  0  0  0  0  0  0
   36.8533  -20.0944   37.0084 C   0  0  0  0  0  0  0  0  0  0  0  0
   37.9260  -19.2050   36.8508 C   0  0  0  0  0  0  0  0  0  0  0  0
   37.6095  -17.8531   36.8481 C   0  0  0  0  0  0  0  0  0  0  0  0
   36.3189  -17.4124   36.9911 C   0  0  0  0  0  0  0  0  0  0  0  0
   35.3234  -18.2915   37.1390 N   0  0  0  0  0  0  0  0  0  0  0  0
   35.5599  -19.6098   37.1508 C   0  0  0  0  0  0  0  0  0  0  0  0
   34.4849  -20.4917   37.3061 C   0  0  0  0  0  0  0  0  0  0  0  0
   34.6982  -21.8478   37.3200 C   0  0  0  0  0  0  0  0  0  0  0  0
   36.0136  -15.9678   36.9818 C   0  0  0  0  0  0  0  0  0  0  0  0
   36.8546  -14.9178   37.2590 C   0  0  0  0  0  0  0  0  0  0  0  0
   36.1245  -13.7549   37.1217 C   0  0  0  0  0  0  0  0  0  0  0  0
   34.8522  -14.1562   36.7616 C   0  0  0  0  0  0  0  0  0  0  0  0
   33.6999  -13.2418   36.4993 C   0  0  0  0  0  0  0  0  0  0  0  0
   34.8501  -15.4621   36.6960 O   0  0  0  0  0  0  0  0  0  0  0  0
   37.3549  -24.1918   36.4694 C   0  0  0  0  0  0  0  0  0  0  0  0
   36.2561  -23.6697   37.1838 O   0  0  0  0  0  0  0  0  0  0  0  0
   39.2701  -19.6323   36.7186 N   0  0  0  0  0  0  0  0  0  0  0  0
   39.8078  -19.9437   37.5335 H   0  0  0  0  0  0  0  0  0  0  0  0
   39.9014  -19.6309   35.4445 C   0  0  0  0  0  0  0  0  0  0  0  0
   40.4018  -21.0247   35.0420 C   0  0  0  0  0  0  0  0  0  0  0  0
   41.8004  -20.5968   35.4342 C   0  0  0  0  0  0  0  0  0  0  0  0
   41.3305  -19.1838   35.3932 C   0  0  0  0  0  0  0  0  0  0  0  0
   41.7308  -18.3572   34.2021 C   0  0  0  0  0  0  0  0  0  0  0  0
   43.0845  -17.8147   34.6578 C   0  0  0  0  0  0  0  0  0  0  0  0
   43.0020  -17.6621   36.0779 N   0  0  0  0  0  0  0  0  0  0  0  0
   44.1722  -18.3136   36.6676 C   0  0  0  0  0  0  0  0  0  0  0  0
   41.7792  -18.3042   36.5330 C   0  0  0  0  0  0  0  0  0  0  0  0
   33.7504  -22.7967   37.4643 O   0  0  0  0  0  0  0  0  0  0  0  0
   32.8682  -23.4138   36.6249 C   0  0  0  0  0  0  0  0  0  0  0  0
   31.7450  -22.6035   36.0690 C   0  0  0  0  0  0  0  0  0  0  0  0
   32.0840  -22.3411   34.5955 C   0  0  0  0  0  0  0  0  0  0  0  0
   31.9129  -20.9477   34.3289 N   0  0  0  0  0  0  0  0  0  0  0  0
   33.0912  -20.2495   33.9152 C   0  0  0  0  0  0  0  0  0  0  0  0
   32.9269  -18.8072   34.3300 C   0  0  0  0  0  0  0  0  0  0  0  0
   31.7309  -18.7734   35.2530 C   0  0  0  0  0  0  0  0  0  0  0  0
   31.3260  -20.2141   35.4217 C   0  0  0  0  0  0  0  0  0  0  0  0
 17 18  1  0  0  0
 18  1  1  0  0  0
  1  2  2  0  0  0
  2  3  1  0  0  0
  3  4  2  0  0  0
  4 19  1  0  0  0
 19 21  1  0  0  0
 21 22  1  0  0  0
 22 23  1  0  0  0
 23 24  1  0  0  0
 24 25  1  0  0  0
 25 26  1  0  0  0
 26 27  1  0  0  0
 27 28  1  0  0  0
 27 29  1  0  0  0
  4  5  1  0  0  0
  5  6  2  0  0  0
  6  7  1  0  0  0
  7  8  2  0  0  0
  8  9  1  0  0  0
  9 10  2  0  0  0
 10 30  1  0  0  0
 30 31  1  0  0  0
 31 32  1  0  0  0
 32 33  1  0  0  0
 33 34  1  0  0  0
 34 35  1  0  0  0
 35 36  1  0  0  0
 36 37  1  0  0  0
 37 38  1  0  0  0
  6 11  1  0  0  0
 11 12  2  0  0  0
 12 13  1  0  0  0
 13 14  2  0  0  0
 14 15  1  0  0  0
 14 16  1  0  0  0
 10  1  1  0  0  0
 38 34  1  0  0  0
 16 11  1  0  0  0
  8  3  1  0  0  0
 24 21  1  0  0  0
 29 24  1  0  0  0
 19 20  1  0  0  0
M  END
> <minimizedAffinity>
-6.64754

> <CNNscore>
0.2139152884

> <CNNaffinity>
6.2727117538

> <CNN_VS>
1.3418289423

> <CNNaffinity_variance>
0.2013260424

$$$$
[H]c1c(-c2nc3c([H])c(OC([H])([H])C([H])([H])C([H])([H])N4C([H])([H])C([H])([H])C([H])([H])C4([H])[H])c(OC([H])([H])[H])c([H])c3c(N([H])C3([H])C([H])([H])C([H])([H])C34C([H])([H])N(C([H])([H])[H])C([H])([H])C4([H])[H])c2[H])oc(C([H])([H])[H])c1[H]


 38 43  0  0  0  0  0  0  0  0999 V2000
   37.8909  -20.6116   36.1302 C   0  0  0  0  0  0  0  0  0  0  0  0
   36.5650  -20.2575   36.2301 C   0  0  0  0  0  0  0  0  0  0  0  0
   36.2106  -18.9323   36.3189 C   0  0  0  0  0  0  0  0  0  0  0  0
   34.8609  -18.5661   36.4227 C   0  0  0  0  0  0  0  0  0  0  0  0
   34.5970  -17.2057   36.5100 C   0  0  0  0  0  0  0  0  0  0  0  0
   35.6013  -16.2722   36.4961 C   0  0  0  0  0  0  0  0  0  0  0  0
   36.8759  -16.6609   36.3959 N   0  0  0  0  0  0  0  0  0  0  0  0
   37.1994  -17.9576   36.3076 C   0  0  0  0  0  0  0  0  0  0  0  0
   38.5480  -18.3162   36.2067 C   0  0  0  0  0  0  0  0  0  0  0  0
   38.9082  -19.6379   36.1168 C   0  0  0  0  0  0  0  0  0  0  0  0
   35.2890  -14.8323   36.5929 C   0  0  0  0  0  0  0  0  0  0  0  0
   35.9994  -13.7709   36.0877 C   0  0  0  0  0  0  0  0  0  0  0  0
   35.3206  -12.6186   36.4278 C   0  0  0  0  0  0  0  0  0  0  0  0
   34.2103  -13.0376   37.1357 C   0  0  0  0  0  0  0  0  0  0  0  0
   33.1666  -12.1397   37.7164 C   0  0  0  0  0  0  0  0  0  0  0  0
   34.2476  -14.3430   37.1990 O   0  0  0  0  0  0  0  0  0  0  0  0
   37.8057  -22.8344   37.0481 C   0  0  0  0  0  0  0  0  0  0  0  0
   38.2248  -21.9384   36.0422 O   0  0  0  0  0  0  0  0  0  0  0  0
   33.8030  -19.5083   36.4219 N   0  0  0  0  0  0  0  0  0  0  0  0
   33.3333  -19.7757   37.2925 H   0  0  0  0  0  0  0  0  0  0  0  0
   33.3762  -20.1067   35.2047 C   0  0  0  0  0  0  0  0  0  0  0  0
   32.6657  -19.1065   34.2828 C   0  0  0  0  0  0  0  0  0  0  0  0
   31.3420  -19.6965   34.7218 C   0  0  0  0  0  0  0  0  0  0  0  0
   32.0909  -20.8761   35.2383 C   0  0  0  0  0  0  0  0  0  0  0  0
   32.0440  -22.1367   34.4193 C   0  0  0  0  0  0  0  0  0  0  0  0
   30.7779  -22.7975   34.9625 C   0  0  0  0  0  0  0  0  0  0  0  0
   30.6836  -22.4206   36.3393 N   0  0  0  0  0  0  0  0  0  0  0  0
   29.3325  -21.9091   36.5727 C   0  0  0  0  0  0  0  0  0  0  0  0
   31.6710  -21.3841   36.5947 C   0  0  0  0  0  0  0  0  0  0  0  0
   40.1676  -20.1097   36.0131 O   0  0  0  0  0  0  0  0  0  0  0  0
   41.2517  -20.1547   36.8417 C   0  0  0  0  0  0  0  0  0  0  0  0
   42.0370  -18.9009   37.0377 C   0  0  0  0  0  0  0  0  0  0  0  0
   43.5152  -19.3119   37.0659 C   0  0  0  0  0  0  0  0  0  0  0  0
   44.0165  -19.1223   38.3906 N   0  0  0  0  0  0  0  0  0  0  0  0
   44.4088  -20.3141   39.0782 C   0  0  0  0  0  0  0  0  0  0  0  0
   44.2482  -20.0527   40.5564 C   0  0  0  0  0  0  0  0  0  0  0  0
   43.4742  -18.7597   40.6685 C   0  0  0  0  0  0  0  0  0  0  0  0
   43.1225  -18.3901   39.2517 C   0  0  0  0  0  0  0  0  0  0  0  0
 17 18  1  0  0  0
 18  1  1  0  0  0
  1  2  2  0  0  0
  2  3  1  0  0  0
  3  4  2  0  0  0
  4 19  1  0  0  0
 19 21  1  0  0  0
 21 22  1  0  0  0
 22 23  1  0  0  0
 23 24  1  0  0  0
 24 25  1  0  0  0
 25 26  1  0  0  0
 26 27  1  0  0  0
 27 28  1  0  0  0
 27 29  1  0  0  0
  4  5  1  0  0  0
  5  6  2  0  0  0
  6  7  1  0  0  0
  7  8  2  0  0  0
  8  9  1  0  0  0
  9 10  2  0  0  0
 10 30  1  0  0  0
 30 31  1  0  0  0
 31 32  1  0  0  0
 32 33  1  0  0  0
 33 34  1  0  0  0
 34 35  1  0  0  0
 35 36  1  0  0  0
 36 37  1  0  0  0
 37 38  1  0  0  0
  6 11  1  0  0  0
 11 12  2  0  0  0
 12 13  1  0  0  0
 13 14  2  0  0  0
 14 15  1  0  0  0
 14 16  1  0  0  0
 10  1  1  0  0  0
 38 34  1  0  0  0
 16 11  1  0  0  0
  8  3  1  0  0  0
 24 21  1  0  0  0
 29 24  1  0  0  0
 19 20  1  0  0  0
M  END
> <minimizedAffinity>
-6.78352

> <CNNscore>
0.2008441836

> <CNNaffinity>
6.1891469955

> <CNN_VS>
1.2430541515

> <CNNaffinity_variance>
0.1059026271

$$$$
[H]c1c(C2([H])OC([H])(C([H])([H])[H])C([H])([H])C2([H])[H])nc2c([H])c(OC([H])([H])C([H])([H])C([H])([H])N3C([H])([H])C([H])([H])C([H])([H])C3([H])[H])c(OC([H])([H])[H])c([H])c2c1N([H])C1([H])C([H])([H])C([H])([H])N(C([H])([H])[H])C([H])([H])C1([H])[H]


 36 40  0  0  0  0  0  0  0  0999 V2000
   36.0736  -13.7602   36.8713 C   0  0  0  0  0  0  0  0  0  0  0  0
   36.5304  -15.0469   36.5800 C   0  0  0  0  0  0  0  0  0  0  0  0
   35.6435  -16.0318   36.1778 C   0  0  0  0  0  0  0  0  0  0  0  0
   36.0535  -17.3079   35.8813 C   0  0  0  0  0  0  0  0  0  0  0  0
   35.0756  -18.2148   35.4863 C   0  0  0  0  0  0  0  0  0  0  0  0
   33.7472  -17.8928   35.3822 C   0  0  0  0  0  0  0  0  0  0  0  0
   33.3965  -16.6330   35.6825 N   0  0  0  0  0  0  0  0  0  0  0  0
   34.2890  -15.6856   36.0772 C   0  0  0  0  0  0  0  0  0  0  0  0
   33.8827  -14.4044   36.3742 C   0  0  0  0  0  0  0  0  0  0  0  0
   34.7489  -13.4192   36.7738 C   0  0  0  0  0  0  0  0  0  0  0  0
   32.7132  -18.8526   34.9660 C   0  0  0  0  0  0  0  0  0  0  0  0
   33.2886  -19.9910   34.1389 C   0  0  0  0  0  0  0  0  0  0  0  0
   32.2780  -21.0803   34.3859 C   0  0  0  0  0  0  0  0  0  0  0  0
   31.4164  -20.5127   35.4680 C   0  0  0  0  0  0  0  0  0  0  0  0
   30.0242  -20.1703   35.0002 C   0  0  0  0  0  0  0  0  0  0  0  0
   32.0736  -19.4538   36.0434 O   0  0  0  0  0  0  0  0  0  0  0  0
   38.2819  -13.1043   37.5668 C   0  0  0  0  0  0  0  0  0  0  0  0
   36.9585  -12.7776   37.2726 O   0  0  0  0  0  0  0  0  0  0  0  0
   37.4096  -17.6847   36.0012 N   0  0  0  0  0  0  0  0  0  0  0  0
   38.1114  -17.1798   36.5777 H   0  0  0  0  0  0  0  0  0  0  0  0
   37.9539  -18.8530   35.3081 C   0  0  0  0  0  0  0  0  0  0  0  0
   38.3479  -18.4444   33.9089 C   0  0  0  0  0  0  0  0  0  0  0  0
   38.7530  -19.7169   33.1915 C   0  0  0  0  0  0  0  0  0  0  0  0
   39.9421  -20.2715   33.8106 N   0  0  0  0  0  0  0  0  0  0  0  0
   41.0435  -20.0336   32.8671 C   0  0  0  0  0  0  0  0  0  0  0  0
   40.3079  -19.6549   35.0467 C   0  0  0  0  0  0  0  0  0  0  0  0
   39.1774  -19.3719   35.9849 C   0  0  0  0  0  0  0  0  0  0  0  0
   34.3021  -12.1175   37.0707 O   0  0  0  0  0  0  0  0  0  0  0  0
   33.3213  -11.9594   38.0787 C   0  0  0  0  0  0  0  0  0  0  0  0
   32.1012  -11.3557   37.4264 C   0  0  0  0  0  0  0  0  0  0  0  0
   30.8531  -12.0904   37.8169 C   0  0  0  0  0  0  0  0  0  0  0  0
   29.9615  -11.2753   38.6222 N   0  0  0  0  0  0  0  0  0  0  0  0
   29.3747  -12.0347   39.7088 C   0  0  0  0  0  0  0  0  0  0  0  0
   28.2766  -12.8040   38.9908 C   0  0  0  0  0  0  0  0  0  0  0  0
   27.6732  -11.7044   38.1331 C   0  0  0  0  0  0  0  0  0  0  0  0
   28.8618  -10.8702   37.7793 C   0  0  0  0  0  0  0  0  0  0  0  0
 17 18  1  0  0  0
 18  1  1  0  0  0
  1  2  2  0  0  0
  2  3  1  0  0  0
  3  4  2  0  0  0
  4 19  1  0  0  0
 19 21  1  0  0  0
 21 22  1  0  0  0
 22 23  1  0  0  0
 23 24  1  0  0  0
 24 25  1  0  0  0
 24 26  1  0  0  0
 26 27  1  0  0  0
  4  5  1  0  0  0
  5  6  2  0  0  0
  6  7  1  0  0  0
  7  8  2  0  0  0
  8  9  1  0  0  0
  9 10  2  0  0  0
 10 28  1  0  0  0
 28 29  1  0  0  0
 29 30  1  0  0  0
 30 31  1  0  0  0
 31 32  1  0  0  0
 32 33  1  0  0  0
 33 34  1  0  0  0
 34 35  1  0  0  0
 35 36  1  0  0  0
  6 11  1  0  0  0
 11 12  1  0  0  0
 12 13  1  0  0  0
 13 14  1  0  0  0
 14 15  1  0  0  0
 14 16  1  0  0  0
 10  1  1  0  0  0
 36 32  1  0  0  0
 16 11  1  0  0  0
  8  3  1  0  0  0
 27 21  1  0  0  0
 19 20  1  0  0  0
M  END
> <minimizedAffinity>
-8.67850

> <CNNscore>
0.9353160858

> <CNNaffinity>
7.4518370628

> <CNN_VS>
6.9698228836

> <CNNaffinity_variance>
0.0960777029

$$$$
[H]c1c(C2([H])OC([H])(C([H])([H])[H])C([H])([H])C2([H])[H])nc2c([H])c(OC([H])([H])C([H])([H])C([H])([H])N3C([H])([H])C([H])([H])C([H])([H])C3([H])[H])c(OC([H])([H])[H])c([H])c2c1N([H])C1([H])C([H])([H])C([H])([H])N(C([H])([H])[H])C([H])([H])C1([H])[H]


 36 40  0  0  0  0  0  0  0  0999 V2000
   36.2965  -14.2325   36.8177 C   0  0  0  0  0  0  0  0  0  0  0  0
   36.7020  -15.4151   36.1963 C   0  0  0  0  0  0  0  0  0  0  0  0
   35.7675  -16.3649   35.8184 C   0  0  0  0  0  0  0  0  0  0  0  0
   36.1259  -17.5392   35.2043 C   0  0  0  0  0  0  0  0  0  0  0  0
   35.1028  -18.4194   34.8678 C   0  0  0  0  0  0  0  0  0  0  0  0
   33.7789  -18.1671   35.1183 C   0  0  0  0  0  0  0  0  0  0  0  0
   33.4794  -17.0059   35.7202 N   0  0  0  0  0  0  0  0  0  0  0  0
   34.4184  -16.0912   36.0826 C   0  0  0  0  0  0  0  0  0  0  0  0
   34.0636  -14.9118   36.6974 C   0  0  0  0  0  0  0  0  0  0  0  0
   34.9773  -13.9624   37.0773 C   0  0  0  0  0  0  0  0  0  0  0  0
   32.6975  -19.0990   34.7638 C   0  0  0  0  0  0  0  0  0  0  0  0
   33.2129  -20.3130   34.0079 C   0  0  0  0  0  0  0  0  0  0  0  0
   32.1515  -21.3342   34.3233 C   0  0  0  0  0  0  0  0  0  0  0  0
   31.3235  -20.6594   35.3694 C   0  0  0  0  0  0  0  0  0  0  0  0
   29.9476  -20.2788   34.8834 C   0  0  0  0  0  0  0  0  0  0  0  0
   32.0341  -19.6005   35.8773 O   0  0  0  0  0  0  0  0  0  0  0  0
   38.5330  -13.6695   37.5045 C   0  0  0  0  0  0  0  0  0  0  0  0
   37.2289  -13.2848   37.1948 O   0  0  0  0  0  0  0  0  0  0  0  0
   37.4815  -17.8464   34.9526 N   0  0  0  0  0  0  0  0  0  0  0  0
   38.1246  -17.2529   34.3921 H   0  0  0  0  0  0  0  0  0  0  0  0
   38.1127  -19.0575   35.4784 C   0  0  0  0  0  0  0  0  0  0  0  0
   38.9854  -18.6773   36.6505 C   0  0  0  0  0  0  0  0  0  0  0  0
   39.7315  -19.9345   37.0517 C   0  0  0  0  0  0  0  0  0  0  0  0
   38.7926  -20.9271   37.5398 N   0  0  0  0  0  0  0  0  0  0  0  0
   38.9912  -20.9977   38.9942 C   0  0  0  0  0  0  0  0  0  0  0  0
   37.4190  -20.6011   37.3191 C   0  0  0  0  0  0  0  0  0  0  0  0
   37.0997  -20.0344   35.9718 C   0  0  0  0  0  0  0  0  0  0  0  0
   34.5826  -12.7655   37.7047 O   0  0  0  0  0  0  0  0  0  0  0  0
   33.8157  -11.8392   36.9586 C   0  0  0  0  0  0  0  0  0  0  0  0
   32.4786  -11.7069   37.6465 C   0  0  0  0  0  0  0  0  0  0  0  0
   31.7328  -10.4985   37.1634 C   0  0  0  0  0  0  0  0  0  0  0  0
   32.2368   -9.2684   37.7472 N   0  0  0  0  0  0  0  0  0  0  0  0
   31.5588   -8.1036   37.2133 C   0  0  0  0  0  0  0  0  0  0  0  0
   32.2498   -7.9326   35.8692 C   0  0  0  0  0  0  0  0  0  0  0  0
   33.7037   -8.1148   36.2717 C   0  0  0  0  0  0  0  0  0  0  0  0
   33.6209   -9.1374   37.3586 C   0  0  0  0  0  0  0  0  0  0  0  0
 17 18  1  0  0  0
 18  1  1  0  0  0
  1  2  2  0  0  0
  2  3  1  0  0  0
  3  4  2  0  0  0
  4 19  1  0  0  0
 19 21  1  0  0  0
 21 22  1  0  0  0
 22 23  1  0  0  0
 23 24  1  0  0  0
 24 25  1  0  0  0
 24 26  1  0  0  0
 26 27  1  0  0  0
  4  5  1  0  0  0
  5  6  2  0  0  0
  6  7  1  0  0  0
  7  8  2  0  0  0
  8  9  1  0  0  0
  9 10  2  0  0  0
 10 28  1  0  0  0
 28 29  1  0  0  0
 29 30  1  0  0  0
 30 31  1  0  0  0
 31 32  1  0  0  0
 32 33  1  0  0  0
 33 34  1  0  0  0
 34 35  1  0  0  0
 35 36  1  0  0  0
  6 11  1  0  0  0
 11 12  1  0  0  0
 12 13  1  0  0  0
 13 14  1  0  0  0
 14 15  1  0  0  0
 14 16  1  0  0  0
 10  1  1  0  0  0
 36 32  1  0  0  0
 16 11  1  0  0  0
  8  3  1  0  0  0
 27 21  1  0  0  0
 19 20  1  0  0  0
M  END
> <minimizedAffinity>
-7.02480

> <CNNscore>
0.7999520302

> <CNNaffinity>
7.3378934860

> <CNN_VS>
5.8699626923

> <CNNaffinity_variance>
0.0329850540

$$$$
[H]c1c(C2([H])OC([H])(C([H])([H])[H])C([H])([H])C2([H])[H])nc2c([H])c(OC([H])([H])C([H])([H])C([H])([H])N3C([H])([H])C([H])([H])C([H])([H])C3([H])[H])c(OC([H])([H])[H])c([H])c2c1N([H])C1([H])C([H])([H])C([H])([H])N(C([H])([H])[H])C([H])([H])C1([H])[H]


 36 40  0  0  0  0  0  0  0  0999 V2000
   35.9540  -15.1464   36.3656 C   0  0  0  0  0  0  0  0  0  0  0  0
   36.2938  -16.4995   36.3120 C   0  0  0  0  0  0  0  0  0  0  0  0
   35.3221  -17.4578   36.0761 C   0  0  0  0  0  0  0  0  0  0  0  0
   35.6160  -18.7974   36.0150 C   0  0  0  0  0  0  0  0  0  0  0  0
   34.5607  -19.6699   35.7710 C   0  0  0  0  0  0  0  0  0  0  0  0
   33.2663  -19.2556   35.5921 C   0  0  0  0  0  0  0  0  0  0  0  0
   33.0299  -17.9366   35.6609 N   0  0  0  0  0  0  0  0  0  0  0  0
   34.0038  -17.0169   35.8960 C   0  0  0  0  0  0  0  0  0  0  0  0
   33.7139  -15.6726   35.9569 C   0  0  0  0  0  0  0  0  0  0  0  0
   34.6651  -14.7125   36.1899 C   0  0  0  0  0  0  0  0  0  0  0  0
   32.1503  -20.1789   35.3359 C   0  0  0  0  0  0  0  0  0  0  0  0
   32.5983  -21.4251   34.5894 C   0  0  0  0  0  0  0  0  0  0  0  0
   31.5427  -22.4168   35.0031 C   0  0  0  0  0  0  0  0  0  0  0  0
   30.7925  -21.6947   36.0760 C   0  0  0  0  0  0  0  0  0  0  0  0
   29.3950  -21.3053   35.6640 C   0  0  0  0  0  0  0  0  0  0  0  0
   31.5500  -20.6331   36.5040 O   0  0  0  0  0  0  0  0  0  0  0  0
   37.5385  -14.1087   37.8500 C   0  0  0  0  0  0  0  0  0  0  0  0
   36.9236  -14.1903   36.6010 O   0  0  0  0  0  0  0  0  0  0  0  0
   36.9331  -19.2651   36.2195 N   0  0  0  0  0  0  0  0  0  0  0  0
   37.4411  -19.2148   37.1247 H   0  0  0  0  0  0  0  0  0  0  0  0
   37.7128  -19.8813   35.1452 C   0  0  0  0  0  0  0  0  0  0  0  0
   38.3516  -18.7874   34.3234 C   0  0  0  0  0  0  0  0  0  0  0  0
   39.0100  -19.4715   33.1416 C   0  0  0  0  0  0  0  0  0  0  0  0
   40.0887  -20.3230   33.6066 N   0  0  0  0  0  0  0  0  0  0  0  0
   41.3367  -19.6509   33.2187 C   0  0  0  0  0  0  0  0  0  0  0  0
   40.1317  -20.5027   35.0236 C   0  0  0  0  0  0  0  0  0  0  0  0
   38.8097  -20.7361   35.6839 C   0  0  0  0  0  0  0  0  0  0  0  0
   34.3367  -13.3447   36.2465 O   0  0  0  0  0  0  0  0  0  0  0  0
   32.9685  -12.9830   36.2337 C   0  0  0  0  0  0  0  0  0  0  0  0
   32.7036  -12.1865   37.4883 C   0  0  0  0  0  0  0  0  0  0  0  0
   31.8863  -10.9631   37.1963 C   0  0  0  0  0  0  0  0  0  0  0  0
   32.3757   -9.7910   37.8995 N   0  0  0  0  0  0  0  0  0  0  0  0
   31.6714   -8.5899   37.4959 C   0  0  0  0  0  0  0  0  0  0  0  0
   32.3435   -8.2680   36.1700 C   0  0  0  0  0  0  0  0  0  0  0  0
   33.8049   -8.4640   36.5370 C   0  0  0  0  0  0  0  0  0  0  0  0
   33.7527   -9.5949   37.5128 C   0  0  0  0  0  0  0  0  0  0  0  0
 17 18  1  0  0  0
 18  1  1  0  0  0
  1  2  2  0  0  0
  2  3  1  0  0  0
  3  4  2  0  0  0
  4 19  1  0  0  0
 19 21  1  0  0  0
 21 22  1  0  0  0
 22 23  1  0  0  0
 23 24  1  0  0  0
 24 25  1  0  0  0
 24 26  1  0  0  0
 26 27  1  0  0  0
  4  5  1  0  0  0
  5  6  2  0  0  0
  6  7  1  0  0  0
  7  8  2  0  0  0
  8  9  1  0  0  0
  9 10  2  0  0  0
 10 28  1  0  0  0
 28 29  1  0  0  0
 29 30  1  0  0  0
 30 31  1  0  0  0
 31 32  1  0  0  0
 32 33  1  0  0  0
 33 34  1  0  0  0
 34 35  1  0  0  0
 35 36  1  0  0  0
  6 11  1  0  0  0
 11 12  1  0  0  0
 12 13  1  0  0  0
 13 14  1  0  0  0
 14 15  1  0  0  0
 14 16  1  0  0  0
 10  1  1  0  0  0
 36 32  1  0  0  0
 16 11  1  0  0  0
  8  3  1  0  0  0
 27 21  1  0  0  0
 19 20  1  0  0  0
M  END
> <minimizedAffinity>
-7.53112

> <CNNscore>
0.6744967699

> <CNNaffinity>
7.0960655212

> <CNN_VS>
4.7862734795

> <CNNaffinity_variance>
0.0421355441

$$$$
[H]c1c(C2([H])OC([H])(C([H])([H])[H])C([H])([H])C2([H])[H])nc2c([H])c(OC([H])([H])C([H])([H])C([H])([H])N3C([H])([H])C([H])([H])C([H])([H])C3([H])[H])c(OC([H])([H])[H])c([H])c2c1N([H])C1([H])C([H])([H])C([H])([H])N(C([H])([H])[H])C([H])([H])C1([H])[H]


 36 40  0  0  0  0  0  0  0  0999 V2000
   36.2197  -14.0581   36.7268 C   0  0  0  0  0  0  0  0  0  0  0  0
   36.7437  -15.2924   36.3381 C   0  0  0  0  0  0  0  0  0  0  0  0
   35.9008  -16.3546   36.0560 C   0  0  0  0  0  0  0  0  0  0  0  0
   36.3768  -17.5829   35.6698 C   0  0  0  0  0  0  0  0  0  0  0  0
   35.4383  -18.5763   35.4106 C   0  0  0  0  0  0  0  0  0  0  0  0
   34.0858  -18.3826   35.5219 C   0  0  0  0  0  0  0  0  0  0  0  0
   33.6702  -17.1649   35.9024 N   0  0  0  0  0  0  0  0  0  0  0  0
   34.5209  -16.1395   36.1754 C   0  0  0  0  0  0  0  0  0  0  0  0
   34.0481  -14.9058   36.5617 C   0  0  0  0  0  0  0  0  0  0  0  0
   34.8702  -13.8451   36.8445 C   0  0  0  0  0  0  0  0  0  0  0  0
   33.0938  -19.4340   35.2494 C   0  0  0  0  0  0  0  0  0  0  0  0
   31.6740  -18.8907   35.2325 C   0  0  0  0  0  0  0  0  0  0  0  0
   30.9791  -19.8980   34.3543 C   0  0  0  0  0  0  0  0  0  0  0  0
   32.1050  -20.7218   33.8166 C   0  0  0  0  0  0  0  0  0  0  0  0
   32.1272  -22.1267   34.3646 C   0  0  0  0  0  0  0  0  0  0  0  0
   33.2809  -20.0417   34.0137 O   0  0  0  0  0  0  0  0  0  0  0  0
   38.3283  -13.2320   37.5407 C   0  0  0  0  0  0  0  0  0  0  0  0
   37.0607  -12.9983   37.0084 O   0  0  0  0  0  0  0  0  0  0  0  0
   37.7642  -17.8285   35.5684 N   0  0  0  0  0  0  0  0  0  0  0  0
   38.4258  -17.2462   35.0179 H   0  0  0  0  0  0  0  0  0  0  0  0
   38.4048  -18.9522   36.2530 C   0  0  0  0  0  0  0  0  0  0  0  0
   37.4682  -19.4645   37.3210 C   0  0  0  0  0  0  0  0  0  0  0  0
   38.2397  -20.5140   38.0965 C   0  0  0  0  0  0  0  0  0  0  0  0
   38.5381  -21.6409   37.2328 N   0  0  0  0  0  0  0  0  0  0  0  0
   37.6652  -22.7376   37.6748 C   0  0  0  0  0  0  0  0  0  0  0  0
   38.2610  -21.4156   35.8492 C   0  0  0  0  0  0  0  0  0  0  0  0
   38.6784  -20.0809   35.3176 C   0  0  0  0  0  0  0  0  0  0  0  0
   34.3556  -12.5950   37.2375 O   0  0  0  0  0  0  0  0  0  0  0  0
   32.9509  -12.4228   37.2507 C   0  0  0  0  0  0  0  0  0  0  0  0
   32.4800  -12.6861   38.6605 C   0  0  0  0  0  0  0  0  0  0  0  0
   31.0083  -12.4330   38.8010 C   0  0  0  0  0  0  0  0  0  0  0  0
   30.3623  -13.3993   39.6710 N   0  0  0  0  0  0  0  0  0  0  0  0
   28.9284  -13.4364   39.4609 C   0  0  0  0  0  0  0  0  0  0  0  0
   28.4713  -12.2056   40.2286 C   0  0  0  0  0  0  0  0  0  0  0  0
   29.2726  -12.3563   41.5108 C   0  0  0  0  0  0  0  0  0  0  0  0
   30.5547  -12.9568   41.0316 C   0  0  0  0  0  0  0  0  0  0  0  0
 17 18  1  0  0  0
 18  1  1  0  0  0
  1  2  2  0  0  0
  2  3  1  0  0  0
  3  4  2  0  0  0
  4 19  1  0  0  0
 19 21  1  0  0  0
 21 22  1  0  0  0
 22 23  1  0  0  0
 23 24  1  0  0  0
 24 25  1  0  0  0
 24 26  1  0  0  0
 26 27  1  0  0  0
  4  5  1  0  0  0
  5  6  2  0  0  0
  6  7  1  0  0  0
  7  8  2  0  0  0
  8  9  1  0  0  0
  9 10  2  0  0  0
 10 28  1  0  0  0
 28 29  1  0  0  0
 29 30  1  0  0  0
 30 31  1  0  0  0
 31 32  1  0  0  0
 32 33  1  0  0  0
 33 34  1  0  0  0
 34 35  1  0  0  0
 35 36  1  0  0  0
  6 11  1  0  0  0
 11 12  1  0  0  0
 12 13  1  0  0  0
 13 14  1  0  0  0
 14 15  1  0  0  0
 14 16  1  0  0  0
 10  1  1  0  0  0
 36 32  1  0  0  0
 16 11  1  0  0  0
  8  3  1  0  0  0
 27 21  1  0  0  0
 19 20  1  0  0  0
M  END
> <minimizedAffinity>
-7.45483

> <CNNscore>
0.6653823853

> <CNNaffinity>
6.8524446487

> <CNN_VS>
4.5594959259

> <CNNaffinity_variance>
0.0489038751

$$$$
[H]c1c(C2([H])OC([H])(C([H])([H])[H])C([H])([H])C2([H])[H])nc2c([H])c(OC([H])([H])C([H])([H])C([H])([H])N3C([H])([H])C([H])([H])C([H])([H])C3([H])[H])c(OC([H])([H])[H])c([H])c2c1N([H])C1([H])C([H])([H])C([H])([H])N(C([H])([H])[H])C([H])([H])C1([H])[H]


 36 40  0  0  0  0  0  0  0  0999 V2000
   36.7040  -21.7202   38.4441 C   0  0  0  0  0  0  0  0  0  0  0  0
   37.5998  -20.8462   37.8255 C   0  0  0  0  0  0  0  0  0  0  0  0
   37.1965  -19.5735   37.4567 C   0  0  0  0  0  0  0  0  0  0  0  0
   38.0473  -18.6848   36.8477 C   0  0  0  0  0  0  0  0  0  0  0  0
   37.5343  -17.4334   36.5228 C   0  0  0  0  0  0  0  0  0  0  0  0
   36.2413  -17.0589   36.7813 C   0  0  0  0  0  0  0  0  0  0  0  0
   35.4490  -17.9625   37.3780 N   0  0  0  0  0  0  0  0  0  0  0  0
   35.8710  -19.2071   37.7278 C   0  0  0  0  0  0  0  0  0  0  0  0
   35.0219  -20.1011   38.3397 C   0  0  0  0  0  0  0  0  0  0  0  0
   35.4067  -21.3642   38.7103 C   0  0  0  0  0  0  0  0  0  0  0  0
   35.6987  -15.7360   36.4360 C   0  0  0  0  0  0  0  0  0  0  0  0
   34.2797  -15.8220   35.8975 C   0  0  0  0  0  0  0  0  0  0  0  0
   33.7516  -14.4503   36.2264 C   0  0  0  0  0  0  0  0  0  0  0  0
   34.8250  -13.8644   37.0865 C   0  0  0  0  0  0  0  0  0  0  0  0
   35.5784  -12.7438   36.4148 C   0  0  0  0  0  0  0  0  0  0  0  0
   35.6374  -14.8788   37.5282 O   0  0  0  0  0  0  0  0  0  0  0  0
   37.7693  -23.8075   37.8971 C   0  0  0  0  0  0  0  0  0  0  0  0
   37.1064  -22.9900   38.8120 O   0  0  0  0  0  0  0  0  0  0  0  0
   39.3792  -19.0427   36.5420 N   0  0  0  0  0  0  0  0  0  0  0  0
   40.1502  -19.0881   37.2372 H   0  0  0  0  0  0  0  0  0  0  0  0
   39.7954  -19.3940   35.1837 C   0  0  0  0  0  0  0  0  0  0  0  0
   41.2623  -19.7515   35.2053 C   0  0  0  0  0  0  0  0  0  0  0  0
   41.6737  -19.9503   33.7598 C   0  0  0  0  0  0  0  0  0  0  0  0
   40.9769  -21.0955   33.2048 N   0  0  0  0  0  0  0  0  0  0  0  0
   41.9816  -22.1596   33.0696 C   0  0  0  0  0  0  0  0  0  0  0  0
   39.9305  -21.6090   34.0314 C   0  0  0  0  0  0  0  0  0  0  0  0
   39.0520  -20.5811   34.6716 C   0  0  0  0  0  0  0  0  0  0  0  0
   34.5140  -22.2558   39.3348 O   0  0  0  0  0  0  0  0  0  0  0  0
   33.1523  -22.2193   38.9510 C   0  0  0  0  0  0  0  0  0  0  0  0
   32.9441  -23.3134   37.9321 C   0  0  0  0  0  0  0  0  0  0  0  0
   31.9511  -24.3283   38.4156 C   0  0  0  0  0  0  0  0  0  0  0  0
   30.8638  -24.5292   37.4747 N   0  0  0  0  0  0  0  0  0  0  0  0
   29.8705  -23.4776   37.5697 C   0  0  0  0  0  0  0  0  0  0  0  0
   29.0888  -23.9011   38.8038 C   0  0  0  0  0  0  0  0  0  0  0  0
   28.9132  -25.3860   38.5335 C   0  0  0  0  0  0  0  0  0  0  0  0
   30.1884  -25.7504   37.8443 C   0  0  0  0  0  0  0  0  0  0  0  0
 17 18  1  0  0  0
 18  1  1  0  0  0
  1  2  2  0  0  0
  2  3  1  0  0  0
  3  4  2  0  0  0
  4 19  1  0  0  0
 19 21  1  0  0  0
 21 22  1  0  0  0
 22 23  1  0  0  0
 23 24  1  0  0  0
 24 25  1  0  0  0
 24 26  1  0  0  0
 26 27  1  0  0  0
  4  5  1  0  0  0
  5  6  2  0  0  0
  6  7  1  0  0  0
  7  8  2  0  0  0
  8  9  1  0  0  0
  9 10  2  0  0  0
 10 28  1  0  0  0
 28 29  1  0  0  0
 29 30  1  0  0  0
 30 31  1  0  0  0
 31 32  1  0  0  0
 32 33  1  0  0  0
 33 34  1  0  0  0
 34 35  1  0  0  0
 35 36  1  0  0  0
  6 11  1  0  0  0
 11 12  1  0  0  0
 12 13  1  0  0  0
 13 14  1  0  0  0
 14 15  1  0  0  0
 14 16  1  0  0  0
 10  1  1  0  0  0
 36 32  1  0  0  0
 16 11  1  0  0  0
  8  3  1  0  0  0
 27 21  1  0  0  0
 19 20  1  0  0  0
M  END
> <minimizedAffinity>
-5.06893

> <CNNscore>
0.3517036438

> <CNNaffinity>
5.6414642334

> <CNN_VS>
1.9841234684

> <CNNaffinity_variance>
0.1561435014

$$$$
[H]c1c(C2([H])OC([H])(C([H])([H])[H])C([H])([H])C2([H])[H])nc2c([H])c(OC([H])([H])C([H])([H])C([H])([H])N3C([H])([H])C([H])([H])C([H])([H])C3([H])[H])c(OC([H])([H])[H])c([H])c2c1N([H])C1([H])C([H])([H])C([H])([H])N(C([H])([H])[H])C([H])([H])C1([H])[H]


 36 40  0  0  0  0  0  0  0  0999 V2000
   36.7747  -22.4334   37.9948 C   0  0  0  0  0  0  0  0  0  0  0  0
   37.5571  -21.5366   37.2649 C   0  0  0  0  0  0  0  0  0  0  0  0
   37.2085  -20.1980   37.1946 C   0  0  0  0  0  0  0  0  0  0  0  0
   37.9520  -19.2851   36.4885 C   0  0  0  0  0  0  0  0  0  0  0  0
   37.5083  -17.9669   36.4885 C   0  0  0  0  0  0  0  0  0  0  0  0
   36.3830  -17.5505   37.1514 C   0  0  0  0  0  0  0  0  0  0  0  0
   35.6905  -18.4801   37.8272 N   0  0  0  0  0  0  0  0  0  0  0  0
   36.0548  -19.7895   37.8778 C   0  0  0  0  0  0  0  0  0  0  0  0
   35.3132  -20.7080   38.5855 C   0  0  0  0  0  0  0  0  0  0  0  0
   35.6456  -22.0363   38.6639 C   0  0  0  0  0  0  0  0  0  0  0  0
   35.9132  -16.1566   37.1496 C   0  0  0  0  0  0  0  0  0  0  0  0
   36.9427  -15.2049   37.7375 C   0  0  0  0  0  0  0  0  0  0  0  0
   36.5639  -13.9074   37.0727 C   0  0  0  0  0  0  0  0  0  0  0  0
   35.5529  -14.3243   36.0533 C   0  0  0  0  0  0  0  0  0  0  0  0
   34.1558  -13.8581   36.3775 C   0  0  0  0  0  0  0  0  0  0  0  0
   35.6457  -15.6816   35.8713 O   0  0  0  0  0  0  0  0  0  0  0  0
   36.9421  -24.5989   36.9589 C   0  0  0  0  0  0  0  0  0  0  0  0
   37.1225  -23.7690   38.0650 O   0  0  0  0  0  0  0  0  0  0  0  0
   39.1033  -19.6803   35.7717 N   0  0  0  0  0  0  0  0  0  0  0  0
   39.2264  -20.6095   35.3230 H   0  0  0  0  0  0  0  0  0  0  0  0
   40.2491  -18.7880   35.5919 C   0  0  0  0  0  0  0  0  0  0  0  0
   41.2935  -19.1281   36.6280 C   0  0  0  0  0  0  0  0  0  0  0  0
   42.3796  -18.0785   36.4987 C   0  0  0  0  0  0  0  0  0  0  0  0
   43.0258  -18.1983   35.2052 N   0  0  0  0  0  0  0  0  0  0  0  0
   44.3577  -18.7630   35.4640 C   0  0  0  0  0  0  0  0  0  0  0  0
   42.3662  -19.0792   34.2938 C   0  0  0  0  0  0  0  0  0  0  0  0
   40.8753  -18.9626   34.2497 C   0  0  0  0  0  0  0  0  0  0  0  0
   34.8659  -22.9516   39.3964 O   0  0  0  0  0  0  0  0  0  0  0  0
   33.5915  -22.5345   39.8490 C   0  0  0  0  0  0  0  0  0  0  0  0
   33.6421  -22.4948   41.3571 C   0  0  0  0  0  0  0  0  0  0  0  0
   33.2930  -21.1329   41.8798 C   0  0  0  0  0  0  0  0  0  0  0  0
   33.7029  -20.9493   43.2604 N   0  0  0  0  0  0  0  0  0  0  0  0
   33.2916  -19.6581   43.7753 C   0  0  0  0  0  0  0  0  0  0  0  0
   34.3434  -18.7370   43.1767 C   0  0  0  0  0  0  0  0  0  0  0  0
   35.6076  -19.5358   43.4461 C   0  0  0  0  0  0  0  0  0  0  0  0
   35.1463  -20.9488   43.2894 C   0  0  0  0  0  0  0  0  0  0  0  0
 17 18  1  0  0  0
 18  1  1  0  0  0
  1  2  2  0  0  0
  2  3  1  0  0  0
  3  4  2  0  0  0
  4 19  1  0  0  0
 19 21  1  0  0  0
 21 22  1  0  0  0
 22 23  1  0  0  0
 23 24  1  0  0  0
 24 25  1  0  0  0
 24 26  1  0  0  0
 26 27  1  0  0  0
  4  5  1  0  0  0
  5  6  2  0  0  0
  6  7  1  0  0  0
  7  8  2  0  0  0
  8  9  1  0  0  0
  9 10  2  0  0  0
 10 28  1  0  0  0
 28 29  1  0  0  0
 29 30  1  0  0  0
 30 31  1  0  0  0
 31 32  1  0  0  0
 32 33  1  0  0  0
 33 34  1  0  0  0
 34 35  1  0  0  0
 35 36  1  0  0  0
  6 11  1  0  0  0
 11 12  1  0  0  0
 12 13  1  0  0  0
 13 14  1  0  0  0
 14 15  1  0  0  0
 14 16  1  0  0  0
 10  1  1  0  0  0
 36 32  1  0  0  0
 16 11  1  0  0  0
  8  3  1  0  0  0
 27 21  1  0  0  0
 19 20  1  0  0  0
M  END
> <minimizedAffinity>
-5.60948

> <CNNscore>
0.3095046878

> <CNNaffinity>
5.6971230507

> <CNN_VS>
1.7632862329

> <CNNaffinity_variance>
0.3559609950

$$$$
[H]c1c(C2([H])OC([H])(C([H])([H])[H])C([H])([H])C2([H])[H])nc2c([H])c(OC([H])([H])C([H])([H])C([H])([H])N3C([H])([H])C([H])([H])C([H])([H])C3([H])[H])c(OC([H])([H])[H])c([H])c2c1N([H])C1([H])C([H])([H])C([H])([H])N(C([H])([H])[H])C([H])([H])C1([H])[H]


 36 40  0  0  0  0  0  0  0  0999 V2000
   39.3654  -19.8379   36.0303 C   0  0  0  0  0  0  0  0  0  0  0  0
   37.9956  -19.5735   36.0851 C   0  0  0  0  0  0  0  0  0  0  0  0
   37.2536  -19.9444   37.1942 C   0  0  0  0  0  0  0  0  0  0  0  0
   35.9057  -19.7012   37.2866 C   0  0  0  0  0  0  0  0  0  0  0  0
   35.2624  -20.1164   38.4478 C   0  0  0  0  0  0  0  0  0  0  0  0
   35.9059  -20.7446   39.4824 C   0  0  0  0  0  0  0  0  0  0  0  0
   37.2232  -20.9596   39.3446 N   0  0  0  0  0  0  0  0  0  0  0  0
   37.9273  -20.5862   38.2426 C   0  0  0  0  0  0  0  0  0  0  0  0
   39.2791  -20.8268   38.1460 C   0  0  0  0  0  0  0  0  0  0  0  0
   40.0267  -20.4657   37.0545 C   0  0  0  0  0  0  0  0  0  0  0  0
   35.2248  -21.1851   40.7094 C   0  0  0  0  0  0  0  0  0  0  0  0
   36.0981  -21.0136   41.9419 C   0  0  0  0  0  0  0  0  0  0  0  0
   35.0617  -20.8962   43.0286 C   0  0  0  0  0  0  0  0  0  0  0  0
   33.7778  -20.7863   42.2704 C   0  0  0  0  0  0  0  0  0  0  0  0
   32.8998  -22.0045   42.4097 C   0  0  0  0  0  0  0  0  0  0  0  0
   34.0631  -20.4668   40.9663 O   0  0  0  0  0  0  0  0  0  0  0  0
   39.4843  -18.8467   33.8407 C   0  0  0  0  0  0  0  0  0  0  0  0
   40.1058  -19.4678   34.9237 O   0  0  0  0  0  0  0  0  0  0  0  0
   35.2027  -19.0794   36.2309 N   0  0  0  0  0  0  0  0  0  0  0  0
   35.3969  -18.1209   35.8794 H   0  0  0  0  0  0  0  0  0  0  0  0
   34.1149  -19.7532   35.5209 C   0  0  0  0  0  0  0  0  0  0  0  0
   32.8801  -19.7240   36.3895 C   0  0  0  0  0  0  0  0  0  0  0  0
   31.8395  -20.5671   35.6792 C   0  0  0  0  0  0  0  0  0  0  0  0
   31.4758  -19.9406   34.4221 N   0  0  0  0  0  0  0  0  0  0  0  0
   30.1218  -19.4011   34.6105 C   0  0  0  0  0  0  0  0  0  0  0  0
   32.3138  -18.8476   34.0416 C   0  0  0  0  0  0  0  0  0  0  0  0
   33.7810  -19.0598   34.2434 C   0  0  0  0  0  0  0  0  0  0  0  0
   41.4086  -20.7260   36.9858 O   0  0  0  0  0  0  0  0  0  0  0  0
   42.1458  -20.7548   38.1935 C   0  0  0  0  0  0  0  0  0  0  0  0
   43.4220  -19.9836   37.9583 C   0  0  0  0  0  0  0  0  0  0  0  0
   43.1570  -18.5120   37.8394 C   0  0  0  0  0  0  0  0  0  0  0  0
   44.2315  -17.8103   37.1606 N   0  0  0  0  0  0  0  0  0  0  0  0
   43.7979  -16.5213   36.6586 C   0  0  0  0  0  0  0  0  0  0  0  0
   43.0483  -16.9174   35.3958 C   0  0  0  0  0  0  0  0  0  0  0  0
   44.0162  -17.9222   34.7939 C   0  0  0  0  0  0  0  0  0  0  0  0
   44.5947  -18.5886   36.0002 C   0  0  0  0  0  0  0  0  0  0  0  0
 17 18  1  0  0  0
 18  1  1  0  0  0
  1  2  2  0  0  0
  2  3  1  0  0  0
  3  4  2  0  0  0
  4 19  1  0  0  0
 19 21  1  0  0  0
 21 22  1  0  0  0
 22 23  1  0  0  0
 23 24  1  0  0  0
 24 25  1  0  0  0
 24 26  1  0  0  0
 26 27  1  0  0  0
  4  5  1  0  0  0
  5  6  2  0  0  0
  6  7  1  0  0  0
  7  8  2  0  0  0
  8  9  1  0  0  0
  9 10  2  0  0  0
 10 28  1  0  0  0
 28 29  1  0  0  0
 29 30  1  0  0  0
 30 31  1  0  0  0
 31 32  1  0  0  0
 32 33  1  0  0  0
 33 34  1  0  0  0
 34 35  1  0  0  0
 35 36  1  0  0  0
  6 11  1  0  0  0
 11 12  1  0  0  0
 12 13  1  0  0  0
 13 14  1  0  0  0
 14 15  1  0  0  0
 14 16  1  0  0  0
 10  1  1  0  0  0
 36 32  1  0  0  0
 16 11  1  0  0  0
  8  3  1  0  0  0
 27 21  1  0  0  0
 19 20  1  0  0  0
M  END
> <minimizedAffinity>
-5.47442

> <CNNscore>
0.2903392315

> <CNNaffinity>
5.4132552147

> <CNN_VS>
1.5716803074

> <CNNaffinity_variance>
0.6482267976

$$$$
[H]c1c(C2([H])OC([H])(C([H])([H])[H])C([H])([H])C2([H])[H])nc2c([H])c(OC([H])([H])C([H])([H])C([H])([H])N3C([H])([H])C([H])([H])C([H])([H])C3([H])[H])c(OC([H])([H])[H])c([H])c2c1N([H])C1([H])C([H])([H])C([H])([H])N(C([H])([H])[H])C([H])([H])C1([H])[H]


 36 40  0  0  0  0  0  0  0  0999 V2000
   35.1613  -18.9804   36.0518 C   0  0  0  0  0  0  0  0  0  0  0  0
   36.5543  -18.8877   36.0630 C   0  0  0  0  0  0  0  0  0  0  0  0
   37.2962  -19.5862   37.0011 C   0  0  0  0  0  0  0  0  0  0  0  0
   38.6668  -19.5222   37.0441 C   0  0  0  0  0  0  0  0  0  0  0  0
   39.3080  -20.2668   38.0285 C   0  0  0  0  0  0  0  0  0  0  0  0
   38.6412  -21.0462   38.9379 C   0  0  0  0  0  0  0  0  0  0  0  0
   37.3024  -21.0759   38.8548 N   0  0  0  0  0  0  0  0  0  0  0  0
   36.5985  -20.3778   37.9237 C   0  0  0  0  0  0  0  0  0  0  0  0
   35.2243  -20.4399   37.8760 C   0  0  0  0  0  0  0  0  0  0  0  0
   34.4765  -19.7540   36.9534 C   0  0  0  0  0  0  0  0  0  0  0  0
   39.3196  -21.8322   39.9799 C   0  0  0  0  0  0  0  0  0  0  0  0
   40.3891  -21.0262   40.6995 C   0  0  0  0  0  0  0  0  0  0  0  0
   40.4582  -21.7381   42.0252 C   0  0  0  0  0  0  0  0  0  0  0  0
   39.2959  -22.6770   41.9736 C   0  0  0  0  0  0  0  0  0  0  0  0
   39.7061  -24.1244   41.8679 C   0  0  0  0  0  0  0  0  0  0  0  0
   38.4505  -22.2757   40.9695 O   0  0  0  0  0  0  0  0  0  0  0  0
   34.6684  -18.4597   33.7547 C   0  0  0  0  0  0  0  0  0  0  0  0
   34.4211  -18.2835   35.1158 O   0  0  0  0  0  0  0  0  0  0  0  0
   39.3878  -18.7104   36.1405 N   0  0  0  0  0  0  0  0  0  0  0  0
   39.4996  -17.6815   36.2348 H   0  0  0  0  0  0  0  0  0  0  0  0
   40.0604  -19.2661   34.9656 C   0  0  0  0  0  0  0  0  0  0  0  0
   41.4407  -19.7247   35.3711 C   0  0  0  0  0  0  0  0  0  0  0  0
   42.1437  -20.1408   34.0941 C   0  0  0  0  0  0  0  0  0  0  0  0
   41.4765  -21.2944   33.5207 N   0  0  0  0  0  0  0  0  0  0  0  0
   42.3721  -22.4380   33.7440 C   0  0  0  0  0  0  0  0  0  0  0  0
   40.2245  -21.6168   34.1293 C   0  0  0  0  0  0  0  0  0  0  0  0
   39.3340  -20.4521   34.4272 C   0  0  0  0  0  0  0  0  0  0  0  0
   33.0713  -19.8383   36.9305 O   0  0  0  0  0  0  0  0  0  0  0  0
   32.4642  -20.6388   35.9338 C   0  0  0  0  0  0  0  0  0  0  0  0
   32.1825  -21.9870   36.5514 C   0  0  0  0  0  0  0  0  0  0  0  0
   30.7793  -22.0654   37.0756 C   0  0  0  0  0  0  0  0  0  0  0  0
   29.7882  -21.9150   36.0255 N   0  0  0  0  0  0  0  0  0  0  0  0
   28.7931  -20.9171   36.3654 C   0  0  0  0  0  0  0  0  0  0  0  0
   27.8940  -21.6890   37.3189 C   0  0  0  0  0  0  0  0  0  0  0  0
   27.7416  -23.0006   36.5669 C   0  0  0  0  0  0  0  0  0  0  0  0
   29.0768  -23.1665   35.9161 C   0  0  0  0  0  0  0  0  0  0  0  0
 17 18  1  0  0  0
 18  1  1  0  0  0
  1  2  2  0  0  0
  2  3  1  0  0  0
  3  4  2  0  0  0
  4 19  1  0  0  0
 19 21  1  0  0  0
 21 22  1  0  0  0
 22 23  1  0  0  0
 23 24  1  0  0  0
 24 25  1  0  0  0
 24 26  1  0  0  0
 26 27  1  0  0  0
  4  5  1  0  0  0
  5  6  2  0  0  0
  6  7  1  0  0  0
  7  8  2  0  0  0
  8  9  1  0  0  0
  9 10  2  0  0  0
 10 28  1  0  0  0
 28 29  1  0  0  0
 29 30  1  0  0  0
 30 31  1  0  0  0
 31 32  1  0  0  0
 32 33  1  0  0  0
 33 34  1  0  0  0
 34 35  1  0  0  0
 35 36  1  0  0  0
  6 11  1  0  0  0
 11 12  1  0  0  0
 12 13  1  0  0  0
 13 14  1  0  0  0
 14 15  1  0  0  0
 14 16  1  0  0  0
 10  1  1  0  0  0
 36 32  1  0  0  0
 16 11  1  0  0  0
  8  3  1  0  0  0
 27 21  1  0  0  0
 19 20  1  0  0  0
M  END
> <minimizedAffinity>
-4.84344

> <CNNscore>
0.2853119969

> <CNNaffinity>
5.3217196465

> <CNN_VS>
1.5183504820

> <CNNaffinity_variance>
0.2636007369

$$$$
[H]c1c(C2([H])OC([H])(C([H])([H])[H])C([H])([H])C2([H])[H])nc2c([H])c(OC([H])([H])C([H])([H])C([H])([H])N3C([H])([H])C([H])([H])C([H])([H])C3([H])[H])c(OC([H])([H])[H])c([H])c2c1N([H])C1([H])C([H])([H])C([H])([H])N(C([H])([H])[H])C([H])([H])C1([H])[H]


 36 40  0  0  0  0  0  0  0  0999 V2000
   36.9866  -21.4416   38.0642 C   0  0  0  0  0  0  0  0  0  0  0  0
   37.5670  -20.6649   37.0596 C   0  0  0  0  0  0  0  0  0  0  0  0
   37.1155  -19.3778   36.8191 C   0  0  0  0  0  0  0  0  0  0  0  0
   37.6606  -18.5826   35.8419 C   0  0  0  0  0  0  0  0  0  0  0  0
   37.1289  -17.3063   35.6901 C   0  0  0  0  0  0  0  0  0  0  0  0
   36.1049  -16.8200   36.4608 C   0  0  0  0  0  0  0  0  0  0  0  0
   35.6060  -17.6352   37.4025 N   0  0  0  0  0  0  0  0  0  0  0  0
   36.0675  -18.8966   37.6159 C   0  0  0  0  0  0  0  0  0  0  0  0
   35.5249  -19.6971   38.5955 C   0  0  0  0  0  0  0  0  0  0  0  0
   35.9612  -20.9731   38.8449 C   0  0  0  0  0  0  0  0  0  0  0  0
   35.5418  -15.4708   36.2987 C   0  0  0  0  0  0  0  0  0  0  0  0
   34.0638  -15.5061   35.9449 C   0  0  0  0  0  0  0  0  0  0  0  0
   33.6032  -14.1643   36.4511 C   0  0  0  0  0  0  0  0  0  0  0  0
   34.7878  -13.6562   37.2087 C   0  0  0  0  0  0  0  0  0  0  0  0
   35.4641  -12.4867   36.5385 C   0  0  0  0  0  0  0  0  0  0  0  0
   35.6354  -14.7071   37.4561 O   0  0  0  0  0  0  0  0  0  0  0  0
   37.9343  -23.5009   37.2569 C   0  0  0  0  0  0  0  0  0  0  0  0
   37.4370  -22.7258   38.3041 O   0  0  0  0  0  0  0  0  0  0  0  0
   38.6995  -19.0571   35.0107 N   0  0  0  0  0  0  0  0  0  0  0  0
   38.6492  -19.1010   33.9736 H   0  0  0  0  0  0  0  0  0  0  0  0
   39.9709  -19.5355   35.5550 C   0  0  0  0  0  0  0  0  0  0  0  0
   40.9634  -19.6622   34.4241 C   0  0  0  0  0  0  0  0  0  0  0  0
   42.2019  -20.3070   35.0144 C   0  0  0  0  0  0  0  0  0  0  0  0
   42.7997  -19.4167   35.9915 N   0  0  0  0  0  0  0  0  0  0  0  0
   44.0275  -18.8963   35.3737 C   0  0  0  0  0  0  0  0  0  0  0  0
   41.9928  -18.2889   36.3362 C   0  0  0  0  0  0  0  0  0  0  0  0
   40.5395  -18.5763   36.5453 C   0  0  0  0  0  0  0  0  0  0  0  0
   35.3852  -21.7674   39.8546 O   0  0  0  0  0  0  0  0  0  0  0  0
   34.1681  -21.3360   40.4339 C   0  0  0  0  0  0  0  0  0  0  0  0
   33.1930  -22.4841   40.3356 C   0  0  0  0  0  0  0  0  0  0  0  0
   33.3678  -23.2409   39.0525 C   0  0  0  0  0  0  0  0  0  0  0  0
   33.2239  -24.6743   39.2326 N   0  0  0  0  0  0  0  0  0  0  0  0
   34.0820  -25.1713   40.2901 C   0  0  0  0  0  0  0  0  0  0  0  0
   35.4302  -25.2369   39.5892 C   0  0  0  0  0  0  0  0  0  0  0  0
   35.0345  -25.8815   38.2713 C   0  0  0  0  0  0  0  0  0  0  0  0
   33.6755  -25.3129   38.0192 C   0  0  0  0  0  0  0  0  0  0  0  0
 17 18  1  0  0  0
 18  1  1  0  0  0
  1  2  2  0  0  0
  2  3  1  0  0  0
  3  4  2  0  0  0
  4 19  1  0  0  0
 19 21  1  0  0  0
 21 22  1  0  0  0
 22 23  1  0  0  0
 23 24  1  0  0  0
 24 25  1  0  0  0
 24 26  1  0  0  0
 26 27  1  0  0  0
  4  5  1  0  0  0
  5  6  2  0  0  0
  6  7  1  0  0  0
  7  8  2  0  0  0
  8  9  1  0  0  0
  9 10  2  0  0  0
 10 28  1  0  0  0
 28 29  1  0  0  0
 29 30  1  0  0  0
 30 31  1  0  0  0
 31 32  1  0  0  0
 32 33  1  0  0  0
 33 34  1  0  0  0
 34 35  1  0  0  0
 35 36  1  0  0  0
  6 11  1  0  0  0
 11 12  1  0  0  0
 12 13  1  0  0  0
 13 14  1  0  0  0
 14 15  1  0  0  0
 14 16  1  0  0  0
 10  1  1  0  0  0
 36 32  1  0  0  0
 16 11  1  0  0  0
  8  3  1  0  0  0
 27 21  1  0  0  0
 19 20  1  0  0  0
M  END
> <minimizedAffinity>
-5.22939

> <CNNscore>
0.2543663681

> <CNNaffinity>
5.7009582520

> <CNN_VS>
1.4501320124

> <CNNaffinity_variance>
0.1562647074

$$$$
[H]c1c(OC([H])([H])C([H])([H])C([H])([H])N(C([H])([H])[H])C([H])([H])[H])c(OC([H])([H])[H])c([H])c2c(N([H])C3([H])C([H])([H])C([H])([H])N(C([H])([H])[H])C([H])([H])C3([H])[H])nc(N3C([H])([H])C([H])([H])N(C([H])([H])[H])C([H])([H])C([H])([H])C3([H])[H])nc12


 36 39  0  0  0  0  0  0  0  0999 V2000
   33.9477  -13.6293   36.3552 C   0  0  0  0  0  0  0  0  0  0  0  0
   33.5741  -14.9391   36.0064 C   0  0  0  0  0  0  0  0  0  0  0  0
   34.5193  -15.9308   35.8785 C   0  0  0  0  0  0  0  0  0  0  0  0
   34.1681  -17.2163   35.5373 C   0  0  0  0  0  0  0  0  0  0  0  0
   35.1624  -18.1453   35.4292 N   0  0  0  0  0  0  0  0  0  0  0  0
   36.4498  -17.8574   35.6397 C   0  0  0  0  0  0  0  0  0  0  0  0
   36.7507  -16.5840   35.9725 N   0  0  0  0  0  0  0  0  0  0  0  0
   35.8530  -15.5969   36.1050 C   0  0  0  0  0  0  0  0  0  0  0  0
   36.1922  -14.3086   36.4450 C   0  0  0  0  0  0  0  0  0  0  0  0
   35.2648  -13.2992   36.5789 C   0  0  0  0  0  0  0  0  0  0  0  0
   37.4591  -18.8564   35.5170 N   0  0  0  0  0  0  0  0  0  0  0  0
   38.2030  -19.1117   36.7020 C   0  0  0  0  0  0  0  0  0  0  0  0
   39.4502  -19.9244   36.4762 C   0  0  0  0  0  0  0  0  0  0  0  0
   39.2261  -21.1308   35.6305 C   0  0  0  0  0  0  0  0  0  0  0  0
   39.4691  -20.8912   34.2431 N   0  0  0  0  0  0  0  0  0  0  0  0
   40.7834  -21.2259   33.7932 C   0  0  0  0  0  0  0  0  0  0  0  0
   38.9838  -19.6334   33.7575 C   0  0  0  0  0  0  0  0  0  0  0  0
   37.5557  -19.4414   34.2082 C   0  0  0  0  0  0  0  0  0  0  0  0
   32.0045  -12.6413   37.4888 C   0  0  0  0  0  0  0  0  0  0  0  0
   32.9719  -12.6684   36.4725 O   0  0  0  0  0  0  0  0  0  0  0  0
   32.8214  -17.6018   35.3085 N   0  0  0  0  0  0  0  0  0  0  0  0
   32.0904  -16.9057   35.1718 H   0  0  0  0  0  0  0  0  0  0  0  0
   32.4732  -19.0078   35.2678 C   0  0  0  0  0  0  0  0  0  0  0  0
   30.9691  -19.1626   35.4669 C   0  0  0  0  0  0  0  0  0  0  0  0
   30.5519  -20.5825   35.4011 C   0  0  0  0  0  0  0  0  0  0  0  0
   31.4814  -21.5120   34.9189 N   0  0  0  0  0  0  0  0  0  0  0  0
   31.6589  -22.7138   35.6460 C   0  0  0  0  0  0  0  0  0  0  0  0
   32.5054  -21.1106   34.0523 C   0  0  0  0  0  0  0  0  0  0  0  0
   32.7257  -19.6362   33.9038 C   0  0  0  0  0  0  0  0  0  0  0  0
   35.5620  -11.9904   36.9191 O   0  0  0  0  0  0  0  0  0  0  0  0
   35.2351  -10.8629   36.1679 C   0  0  0  0  0  0  0  0  0  0  0  0
   34.4463   -9.9275   37.0871 C   0  0  0  0  0  0  0  0  0  0  0  0
   34.4042   -8.5772   36.4424 C   0  0  0  0  0  0  0  0  0  0  0  0
   33.0946   -7.9864   36.4785 N   0  0  0  0  0  0  0  0  0  0  0  0
   32.2721   -8.8220   37.3585 C   0  0  0  0  0  0  0  0  0  0  0  0
   32.4741   -7.8866   35.1808 C   0  0  0  0  0  0  0  0  0  0  0  0
 19 20  1  0  0  0
 20  1  1  0  0  0
  1  2  2  0  0  0
  2  3  1  0  0  0
  3  4  2  0  0  0
  4 21  1  0  0  0
 21 23  1  0  0  0
 23 24  1  0  0  0
 24 25  1  0  0  0
 25 26  1  0  0  0
 26 27  1  0  0  0
 26 28  1  0  0  0
 28 29  1  0  0  0
  4  5  1  0  0  0
  5  6  2  0  0  0
  6  7  1  0  0  0
  7  8  2  0  0  0
  8  9  1  0  0  0
  9 10  2  0  0  0
 10 30  1  0  0  0
 30 31  1  0  0  0
 31 32  1  0  0  0
 32 33  1  0  0  0
 33 34  1  0  0  0
 34 35  1  0  0  0
 34 36  1  0  0  0
  6 11  1  0  0  0
 11 12  1  0  0  0
 12 13  1  0  0  0
 13 14  1  0  0  0
 14 15  1  0  0  0
 15 16  1  0  0  0
 15 17  1  0  0  0
 17 18  1  0  0  0
 10  1  1  0  0  0
 18 11  1  0  0  0
  8  3  1  0  0  0
 29 23  1  0  0  0
 21 22  1  0  0  0
M  END
> <minimizedAffinity>
-7.29073

> <CNNscore>
0.6235241890

> <CNNaffinity>
7.0197038651

> <CNN_VS>
4.3769550323

> <CNNaffinity_variance>
0.0158076622

$$$$
[H]c1c(OC([H])([H])C([H])([H])C([H])([H])N(C([H])([H])[H])C([H])([H])[H])c(OC([H])([H])[H])c([H])c2c(N([H])C3([H])C([H])([H])C([H])([H])N(C([H])([H])[H])C([H])([H])C3([H])[H])nc(N3C([H])([H])C([H])([H])N(C([H])([H])[H])C([H])([H])C([H])([H])C3([H])[H])nc12


 36 39  0  0  0  0  0  0  0  0999 V2000
   36.1712  -14.1293   36.6759 C   0  0  0  0  0  0  0  0  0  0  0  0
   36.7370  -15.4164   36.6625 C   0  0  0  0  0  0  0  0  0  0  0  0
   35.9696  -16.5203   36.3696 C   0  0  0  0  0  0  0  0  0  0  0  0
   36.5097  -17.7852   36.3533 C   0  0  0  0  0  0  0  0  0  0  0  0
   35.6847  -18.8309   36.0542 N   0  0  0  0  0  0  0  0  0  0  0  0
   34.3868  -18.6748   35.7795 C   0  0  0  0  0  0  0  0  0  0  0  0
   33.8975  -17.4168   35.8064 N   0  0  0  0  0  0  0  0  0  0  0  0
   34.6194  -16.3225   36.0877 C   0  0  0  0  0  0  0  0  0  0  0  0
   34.0904  -15.0536   36.1073 C   0  0  0  0  0  0  0  0  0  0  0  0
   34.8378  -13.9337   36.3975 C   0  0  0  0  0  0  0  0  0  0  0  0
   33.5580  -19.7929   35.4715 N   0  0  0  0  0  0  0  0  0  0  0  0
   32.8271  -19.6859   34.2561 C   0  0  0  0  0  0  0  0  0  0  0  0
   31.7369  -20.7135   34.1073 C   0  0  0  0  0  0  0  0  0  0  0  0
   32.1818  -22.0996   34.4260 C   0  0  0  0  0  0  0  0  0  0  0  0
   31.9487  -22.4598   35.7888 N   0  0  0  0  0  0  0  0  0  0  0  0
   30.7217  -23.1517   36.0296 C   0  0  0  0  0  0  0  0  0  0  0  0
   32.2385  -21.4281   36.7401 C   0  0  0  0  0  0  0  0  0  0  0  0
   33.6008  -20.8469   36.4471 C   0  0  0  0  0  0  0  0  0  0  0  0
   38.2714  -13.1536   37.4971 C   0  0  0  0  0  0  0  0  0  0  0  0
   36.9733  -13.0534   36.9735 O   0  0  0  0  0  0  0  0  0  0  0  0
   37.8814  -18.0303   36.6237 N   0  0  0  0  0  0  0  0  0  0  0  0
   38.4040  -17.4416   37.2702 H   0  0  0  0  0  0  0  0  0  0  0  0
   38.5563  -19.1348   35.9723 C   0  0  0  0  0  0  0  0  0  0  0  0
   38.5922  -18.8892   34.4676 C   0  0  0  0  0  0  0  0  0  0  0  0
   39.3024  -19.9752   33.7528 C   0  0  0  0  0  0  0  0  0  0  0  0
   40.0429  -20.8830   34.5197 N   0  0  0  0  0  0  0  0  0  0  0  0
   39.8891  -22.2640   34.2481 C   0  0  0  0  0  0  0  0  0  0  0  0
   40.5476  -20.5114   35.7719 C   0  0  0  0  0  0  0  0  0  0  0  0
   40.0257  -19.2358   36.3591 C   0  0  0  0  0  0  0  0  0  0  0  0
   34.3465  -12.6396   36.4284 O   0  0  0  0  0  0  0  0  0  0  0  0
   33.8330  -11.9936   37.5516 C   0  0  0  0  0  0  0  0  0  0  0  0
   32.4644  -12.6159   37.8376 C   0  0  0  0  0  0  0  0  0  0  0  0
   31.4160  -11.6603   37.3596 C   0  0  0  0  0  0  0  0  0  0  0  0
   30.0939  -12.0302   37.7846 N   0  0  0  0  0  0  0  0  0  0  0  0
   29.2743  -10.8155   37.7399 C   0  0  0  0  0  0  0  0  0  0  0  0
   30.0547  -12.5965   39.1100 C   0  0  0  0  0  0  0  0  0  0  0  0
 19 20  1  0  0  0
 20  1  1  0  0  0
  1  2  2  0  0  0
  2  3  1  0  0  0
  3  4  2  0  0  0
  4 21  1  0  0  0
 21 23  1  0  0  0
 23 24  1  0  0  0
 24 25  1  0  0  0
 25 26  1  0  0  0
 26 27  1  0  0  0
 26 28  1  0  0  0
 28 29  1  0  0  0
  4  5  1  0  0  0
  5  6  2  0  0  0
  6  7  1  0  0  0
  7  8  2  0  0  0
  8  9  1  0  0  0
  9 10  2  0  0  0
 10 30  1  0  0  0
 30 31  1  0  0  0
 31 32  1  0  0  0
 32 33  1  0  0  0
 33 34  1  0  0  0
 34 35  1  0  0  0
 34 36  1  0  0  0
  6 11  1  0  0  0
 11 12  1  0  0  0
 12 13  1  0  0  0
 13 14  1  0  0  0
 14 15  1  0  0  0
 15 16  1  0  0  0
 15 17  1  0  0  0
 17 18  1  0  0  0
 10  1  1  0  0  0
 18 11  1  0  0  0
  8  3  1  0  0  0
 29 23  1  0  0  0
 21 22  1  0  0  0
M  END
> <minimizedAffinity>
-7.94349

> <CNNscore>
0.6180980802

> <CNNaffinity>
6.7326865196

> <CNN_VS>
4.1614603996

> <CNNaffinity_variance>
0.0889972001

$$$$
[H]c1c(OC([H])([H])C([H])([H])C([H])([H])N(C([H])([H])[H])C([H])([H])[H])c(OC([H])([H])[H])c([H])c2c(N([H])C3([H])C([H])([H])C([H])([H])N(C([H])([H])[H])C([H])([H])C3([H])[H])nc(N3C([H])([H])C([H])([H])N(C([H])([H])[H])C([H])([H])C([H])([H])C3([H])[H])nc12


 36 39  0  0  0  0  0  0  0  0999 V2000
   32.4938  -21.4090   35.3182 C   0  0  0  0  0  0  0  0  0  0  0  0
   33.8065  -20.9633   35.5531 C   0  0  0  0  0  0  0  0  0  0  0  0
   34.0726  -19.6275   35.7483 C   0  0  0  0  0  0  0  0  0  0  0  0
   35.3518  -19.1773   35.9787 C   0  0  0  0  0  0  0  0  0  0  0  0
   35.5366  -17.8374   36.1628 N   0  0  0  0  0  0  0  0  0  0  0  0
   34.5337  -16.9557   36.1283 C   0  0  0  0  0  0  0  0  0  0  0  0
   33.2944  -17.4397   35.8995 N   0  0  0  0  0  0  0  0  0  0  0  0
   33.0038  -18.7343   35.7061 C   0  0  0  0  0  0  0  0  0  0  0  0
   31.7295  -19.1957   35.4747 C   0  0  0  0  0  0  0  0  0  0  0  0
   31.4382  -20.5271   35.2764 C   0  0  0  0  0  0  0  0  0  0  0  0
   34.7679  -15.5635   36.3256 N   0  0  0  0  0  0  0  0  0  0  0  0
   36.0457  -15.2358   36.8572 C   0  0  0  0  0  0  0  0  0  0  0  0
   36.1567  -13.8167   37.3478 C   0  0  0  0  0  0  0  0  0  0  0  0
   35.6274  -12.8129   36.3819 C   0  0  0  0  0  0  0  0  0  0  0  0
   34.2552  -12.4881   36.6121 N   0  0  0  0  0  0  0  0  0  0  0  0
   34.0357  -11.3336   37.4250 C   0  0  0  0  0  0  0  0  0  0  0  0
   33.4211  -13.6060   36.9406 C   0  0  0  0  0  0  0  0  0  0  0  0
   33.6665  -14.7200   35.9516 C   0  0  0  0  0  0  0  0  0  0  0  0
   32.7716  -23.7637   35.9624 C   0  0  0  0  0  0  0  0  0  0  0  0
   32.2717  -22.7521   35.1282 O   0  0  0  0  0  0  0  0  0  0  0  0
   36.4670  -20.0533   36.0404 N   0  0  0  0  0  0  0  0  0  0  0  0
   36.4137  -20.9392   36.5404 H   0  0  0  0  0  0  0  0  0  0  0  0
   37.7057  -19.6873   35.3836 C   0  0  0  0  0  0  0  0  0  0  0  0
   38.7026  -20.8347   35.5079 C   0  0  0  0  0  0  0  0  0  0  0  0
   39.9796  -20.5265   34.8230 C   0  0  0  0  0  0  0  0  0  0  0  0
   40.0087  -19.4168   33.9697 N   0  0  0  0  0  0  0  0  0  0  0  0
   41.0949  -18.5162   34.0865 C   0  0  0  0  0  0  0  0  0  0  0  0
   38.8349  -18.9558   33.3612 C   0  0  0  0  0  0  0  0  0  0  0  0
   37.5428  -19.5087   33.8800 C   0  0  0  0  0  0  0  0  0  0  0  0
   30.1717  -21.0344   35.0406 O   0  0  0  0  0  0  0  0  0  0  0  0
   29.4970  -21.9424   35.8548 C   0  0  0  0  0  0  0  0  0  0  0  0
   28.4873  -21.1391   36.6779 C   0  0  0  0  0  0  0  0  0  0  0  0
   27.6373  -22.1096   37.4370 C   0  0  0  0  0  0  0  0  0  0  0  0
   27.0035  -21.5143   38.5812 N   0  0  0  0  0  0  0  0  0  0  0  0
   27.0472  -20.0618   38.3875 C   0  0  0  0  0  0  0  0  0  0  0  0
   27.6347  -21.8589   39.8309 C   0  0  0  0  0  0  0  0  0  0  0  0
 19 20  1  0  0  0
 20  1  1  0  0  0
  1  2  2  0  0  0
  2  3  1  0  0  0
  3  4  2  0  0  0
  4 21  1  0  0  0
 21 23  1  0  0  0
 23 24  1  0  0  0
 24 25  1  0  0  0
 25 26  1  0  0  0
 26 27  1  0  0  0
 26 28  1  0  0  0
 28 29  1  0  0  0
  4  5  1  0  0  0
  5  6  2  0  0  0
  6  7  1  0  0  0
  7  8  2  0  0  0
  8  9  1  0  0  0
  9 10  2  0  0  0
 10 30  1  0  0  0
 30 31  1  0  0  0
 31 32  1  0  0  0
 32 33  1  0  0  0
 33 34  1  0  0  0
 34 35  1  0  0  0
 34 36  1  0  0  0
  6 11  1  0  0  0
 11 12  1  0  0  0
 12 13  1  0  0  0
 13 14  1  0  0  0
 14 15  1  0  0  0
 15 16  1  0  0  0
 15 17  1  0  0  0
 17 18  1  0  0  0
 10  1  1  0  0  0
 18 11  1  0  0  0
  8  3  1  0  0  0
 29 23  1  0  0  0
 21 22  1  0  0  0
M  END
> <minimizedAffinity>
-6.26511

> <CNNscore>
0.4554174244

> <CNNaffinity>
6.4452872276

> <CNN_VS>
2.9352960587

> <CNNaffinity_variance>
0.0987502486

$$$$
[H]c1c(OC([H])([H])C([H])([H])C([H])([H])N(C([H])([H])[H])C([H])([H])[H])c(OC([H])([H])[H])c([H])c2c(N([H])C3([H])C([H])([H])C([H])([H])N(C([H])([H])[H])C([H])([H])C3([H])[H])nc(N3C([H])([H])C([H])([H])N(C([H])([H])[H])C([H])([H])C([H])([H])C3([H])[H])nc12


 36 39  0  0  0  0  0  0  0  0999 V2000
   36.2457  -15.2891   36.4639 C   0  0  0  0  0  0  0  0  0  0  0  0
   36.8022  -16.5690   36.6345 C   0  0  0  0  0  0  0  0  0  0  0  0
   36.0243  -17.6974   36.5126 C   0  0  0  0  0  0  0  0  0  0  0  0
   36.5553  -18.9556   36.6773 C   0  0  0  0  0  0  0  0  0  0  0  0
   35.7202  -20.0268   36.5412 N   0  0  0  0  0  0  0  0  0  0  0  0
   34.4209  -19.9018   36.2571 C   0  0  0  0  0  0  0  0  0  0  0  0
   33.9408  -18.6493   36.1034 N   0  0  0  0  0  0  0  0  0  0  0  0
   34.6730  -17.5317   36.2156 C   0  0  0  0  0  0  0  0  0  0  0  0
   34.1533  -16.2692   36.0535 C   0  0  0  0  0  0  0  0  0  0  0  0
   34.9112  -15.1252   36.1706 C   0  0  0  0  0  0  0  0  0  0  0  0
   33.5814  -21.0459   36.1228 N   0  0  0  0  0  0  0  0  0  0  0  0
   33.9986  -22.1903   36.8570 C   0  0  0  0  0  0  0  0  0  0  0  0
   33.2927  -23.4599   36.4612 C   0  0  0  0  0  0  0  0  0  0  0  0
   31.8133  -23.3094   36.3639 C   0  0  0  0  0  0  0  0  0  0  0  0
   31.3722  -22.9848   35.0443 N   0  0  0  0  0  0  0  0  0  0  0  0
   30.9799  -24.1033   34.2461 C   0  0  0  0  0  0  0  0  0  0  0  0
   32.1891  -22.0292   34.3568 C   0  0  0  0  0  0  0  0  0  0  0  0
   32.4474  -20.8493   35.2626 C   0  0  0  0  0  0  0  0  0  0  0  0
   37.7822  -13.8704   37.7536 C   0  0  0  0  0  0  0  0  0  0  0  0
   37.0580  -14.1880   36.5943 O   0  0  0  0  0  0  0  0  0  0  0  0
   37.9276  -19.1699   36.9697 N   0  0  0  0  0  0  0  0  0  0  0  0
   38.2825  -19.0873   37.9209 H   0  0  0  0  0  0  0  0  0  0  0  0
   38.8452  -19.5119   35.9015 C   0  0  0  0  0  0  0  0  0  0  0  0
   40.2459  -19.0299   36.2641 C   0  0  0  0  0  0  0  0  0  0  0  0
   41.2339  -19.3837   35.2183 C   0  0  0  0  0  0  0  0  0  0  0  0
   40.8390  -20.2961   34.2324 N   0  0  0  0  0  0  0  0  0  0  0  0
   41.1261  -19.9820   32.8821 C   0  0  0  0  0  0  0  0  0  0  0  0
   39.8260  -21.2280   34.4897 C   0  0  0  0  0  0  0  0  0  0  0  0
   39.0116  -21.0157   35.7291 C   0  0  0  0  0  0  0  0  0  0  0  0
   34.4294  -13.8365   36.0157 O   0  0  0  0  0  0  0  0  0  0  0  0
   33.0993  -13.4451   36.1581 C   0  0  0  0  0  0  0  0  0  0  0  0
   32.8663  -13.1903   37.6491 C   0  0  0  0  0  0  0  0  0  0  0  0
   33.3015  -11.7899   37.9495 C   0  0  0  0  0  0  0  0  0  0  0  0
   32.5207  -10.8053   37.2521 N   0  0  0  0  0  0  0  0  0  0  0  0
   33.1301   -9.5010   37.5290 C   0  0  0  0  0  0  0  0  0  0  0  0
   31.1336  -10.7890   37.6455 C   0  0  0  0  0  0  0  0  0  0  0  0
 19 20  1  0  0  0
 20  1  1  0  0  0
  1  2  2  0  0  0
  2  3  1  0  0  0
  3  4  2  0  0  0
  4 21  1  0  0  0
 21 23  1  0  0  0
 23 24  1  0  0  0
 24 25  1  0  0  0
 25 26  1  0  0  0
 26 27  1  0  0  0
 26 28  1  0  0  0
 28 29  1  0  0  0
  4  5  1  0  0  0
  5  6  2  0  0  0
  6  7  1  0  0  0
  7  8  2  0  0  0
  8  9  1  0  0  0
  9 10  2  0  0  0
 10 30  1  0  0  0
 30 31  1  0  0  0
 31 32  1  0  0  0
 32 33  1  0  0  0
 33 34  1  0  0  0
 34 35  1  0  0  0
 34 36  1  0  0  0
  6 11  1  0  0  0
 11 12  1  0  0  0
 12 13  1  0  0  0
 13 14  1  0  0  0
 14 15  1  0  0  0
 15 16  1  0  0  0
 15 17  1  0  0  0
 17 18  1  0  0  0
 10  1  1  0  0  0
 18 11  1  0  0  0
  8  3  1  0  0  0
 29 23  1  0  0  0
 21 22  1  0  0  0
M  END
> <minimizedAffinity>
-6.72358

> <CNNscore>
0.3486852944

> <CNNaffinity>
6.1121168137

> <CNN_VS>
2.1312053204

> <CNNaffinity_variance>
0.1275087446

$$$$
[H]c1c(OC([H])([H])C([H])([H])C([H])([H])N(C([H])([H])[H])C([H])([H])[H])c(OC([H])([H])[H])c([H])c2c(N([H])C3([H])C([H])([H])C([H])([H])N(C([H])([H])[H])C([H])([H])C3([H])[H])nc(N3C([H])([H])C([H])([H])N(C([H])([H])[H])C([H])([H])C([H])([H])C3([H])[H])nc12


 36 39  0  0  0  0  0  0  0  0999 V2000
   35.2299  -22.2902   37.1135 C   0  0  0  0  0  0  0  0  0  0  0  0
   36.4009  -21.5124   37.1394 C   0  0  0  0  0  0  0  0  0  0  0  0
   36.3358  -20.1390   37.0850 C   0  0  0  0  0  0  0  0  0  0  0  0
   37.4731  -19.3657   37.1091 C   0  0  0  0  0  0  0  0  0  0  0  0
   37.3278  -18.0096   37.0512 N   0  0  0  0  0  0  0  0  0  0  0  0
   36.1362  -17.4108   36.9730 C   0  0  0  0  0  0  0  0  0  0  0  0
   35.0460  -18.2069   36.9521 N   0  0  0  0  0  0  0  0  0  0  0  0
   35.0773  -19.5463   37.0040 C   0  0  0  0  0  0  0  0  0  0  0  0
   33.9475  -20.3294   36.9802 C   0  0  0  0  0  0  0  0  0  0  0  0
   33.9870  -21.7051   37.0334 C   0  0  0  0  0  0  0  0  0  0  0  0
   36.0263  -15.9908   36.9146 N   0  0  0  0  0  0  0  0  0  0  0  0
   37.1096  -15.2771   37.4974 C   0  0  0  0  0  0  0  0  0  0  0  0
   36.8325  -13.8121   37.7073 C   0  0  0  0  0  0  0  0  0  0  0  0
   36.2400  -13.1445   36.5140 C   0  0  0  0  0  0  0  0  0  0  0  0
   34.8115  -13.1301   36.5359 N   0  0  0  0  0  0  0  0  0  0  0  0
   34.2274  -11.9443   37.0789 C   0  0  0  0  0  0  0  0  0  0  0  0
   34.2062  -14.3461   36.9924 C   0  0  0  0  0  0  0  0  0  0  0  0
   34.8317  -15.5164   36.2724 C   0  0  0  0  0  0  0  0  0  0  0  0
   36.4712  -24.3810   36.7601 C   0  0  0  0  0  0  0  0  0  0  0  0
   35.3397  -23.6592   37.1698 O   0  0  0  0  0  0  0  0  0  0  0  0
   38.7733  -19.9275   37.2018 N   0  0  0  0  0  0  0  0  0  0  0  0
   38.9455  -20.7691   37.7492 H   0  0  0  0  0  0  0  0  0  0  0  0
   39.8794  -19.2981   36.5088 C   0  0  0  0  0  0  0  0  0  0  0  0
   41.1944  -19.8562   37.0428 C   0  0  0  0  0  0  0  0  0  0  0  0
   42.3615  -19.2696   36.3439 C   0  0  0  0  0  0  0  0  0  0  0  0
   42.1196  -18.5394   35.1739 N   0  0  0  0  0  0  0  0  0  0  0  0
   42.7597  -17.2849   35.0284 C   0  0  0  0  0  0  0  0  0  0  0  0
   40.9774  -18.7881   34.4030 C   0  0  0  0  0  0  0  0  0  0  0  0
   39.9147  -19.6410   35.0255 C   0  0  0  0  0  0  0  0  0  0  0  0
   32.8759  -22.5309   37.0121 O   0  0  0  0  0  0  0  0  0  0  0  0
   31.5525  -22.1074   36.9035 C   0  0  0  0  0  0  0  0  0  0  0  0
   30.6702  -23.3355   37.1391 C   0  0  0  0  0  0  0  0  0  0  0  0
   31.1427  -24.4231   36.2256 C   0  0  0  0  0  0  0  0  0  0  0  0
   30.3690  -24.5072   35.0174 N   0  0  0  0  0  0  0  0  0  0  0  0
   29.6736  -25.7975   35.0432 C   0  0  0  0  0  0  0  0  0  0  0  0
   31.1638  -24.4054   33.8187 C   0  0  0  0  0  0  0  0  0  0  0  0
 19 20  1  0  0  0
 20  1  1  0  0  0
  1  2  2  0  0  0
  2  3  1  0  0  0
  3  4  2  0  0  0
  4 21  1  0  0  0
 21 23  1  0  0  0
 23 24  1  0  0  0
 24 25  1  0  0  0
 25 26  1  0  0  0
 26 27  1  0  0  0
 26 28  1  0  0  0
 28 29  1  0  0  0
  4  5  1  0  0  0
  5  6  2  0  0  0
  6  7  1  0  0  0
  7  8  2  0  0  0
  8  9  1  0  0  0
  9 10  2  0  0  0
 10 30  1  0  0  0
 30 31  1  0  0  0
 31 32  1  0  0  0
 32 33  1  0  0  0
 33 34  1  0  0  0
 34 35  1  0  0  0
 34 36  1  0  0  0
  6 11  1  0  0  0
 11 12  1  0  0  0
 12 13  1  0  0  0
 13 14  1  0  0  0
 14 15  1  0  0  0
 15 16  1  0  0  0
 15 17  1  0  0  0
 17 18  1  0  0  0
 10  1  1  0  0  0
 18 11  1  0  0  0
  8  3  1  0  0  0
 29 23  1  0  0  0
 21 22  1  0  0  0
M  END
> <minimizedAffinity>
-5.46823

> <CNNscore>
0.3320249319

> <CNNaffinity>
5.9747662544

> <CNN_VS>
1.9837713242

> <CNNaffinity_variance>
0.0899763554

$$$$
[H]c1c(OC([H])([H])C([H])([H])C([H])([H])N(C([H])([H])[H])C([H])([H])[H])c(OC([H])([H])[H])c([H])c2c(N([H])C3([H])C([H])([H])C([H])([H])N(C([H])([H])[H])C([H])([H])C3([H])[H])nc(N3C([H])([H])C([H])([H])N(C([H])([H])[H])C([H])([H])C([H])([H])C3([H])[H])nc12


 36 39  0  0  0  0  0  0  0  0999 V2000
   34.5193  -15.6606   36.1860 C   0  0  0  0  0  0  0  0  0  0  0  0
   34.4772  -16.8493   35.4362 C   0  0  0  0  0  0  0  0  0  0  0  0
   35.5626  -17.6939   35.3930 C   0  0  0  0  0  0  0  0  0  0  0  0
   35.5355  -18.8596   34.6633 C   0  0  0  0  0  0  0  0  0  0  0  0
   36.6514  -19.6458   34.6691 N   0  0  0  0  0  0  0  0  0  0  0  0
   37.7572  -19.3301   35.3490 C   0  0  0  0  0  0  0  0  0  0  0  0
   37.7413  -18.1775   36.0518 N   0  0  0  0  0  0  0  0  0  0  0  0
   36.7000  -17.3350   36.1135 C   0  0  0  0  0  0  0  0  0  0  0  0
   36.7157  -16.1672   36.8390 C   0  0  0  0  0  0  0  0  0  0  0  0
   35.6425  -15.3059   36.8976 C   0  0  0  0  0  0  0  0  0  0  0  0
   38.9026  -20.1782   35.3298 N   0  0  0  0  0  0  0  0  0  0  0  0
   40.1347  -19.5227   35.0558 C   0  0  0  0  0  0  0  0  0  0  0  0
   41.2661  -20.4613   34.7307 C   0  0  0  0  0  0  0  0  0  0  0  0
   41.3852  -21.5988   35.6860 C   0  0  0  0  0  0  0  0  0  0  0  0
   40.6714  -22.7608   35.2599 N   0  0  0  0  0  0  0  0  0  0  0  0
   41.4496  -23.7169   34.5372 C   0  0  0  0  0  0  0  0  0  0  0  0
   39.3838  -22.4981   34.6887 C   0  0  0  0  0  0  0  0  0  0  0  0
   38.6180  -21.5619   35.5923 C   0  0  0  0  0  0  0  0  0  0  0  0
   32.9459  -14.1214   35.0943 C   0  0  0  0  0  0  0  0  0  0  0  0
   33.4130  -14.8450   36.2021 O   0  0  0  0  0  0  0  0  0  0  0  0
   34.3946  -19.2682   33.9243 N   0  0  0  0  0  0  0  0  0  0  0  0
   34.3258  -19.0944   32.9230 H   0  0  0  0  0  0  0  0  0  0  0  0
   33.3051  -19.9442   34.5995 C   0  0  0  0  0  0  0  0  0  0  0  0
   32.0762  -19.0412   34.6065 C   0  0  0  0  0  0  0  0  0  0  0  0
   30.9186  -19.6977   35.2575 C   0  0  0  0  0  0  0  0  0  0  0  0
   31.0097  -21.0710   35.5148 N   0  0  0  0  0  0  0  0  0  0  0  0
   30.6242  -21.5348   36.7957 C   0  0  0  0  0  0  0  0  0  0  0  0
   31.8516  -21.8848   34.7468 C   0  0  0  0  0  0  0  0  0  0  0  0
   32.8369  -21.1892   33.8581 C   0  0  0  0  0  0  0  0  0  0  0  0
   35.6154  -14.1217   37.6143 O   0  0  0  0  0  0  0  0  0  0  0  0
   36.1842  -12.9154   37.2095 C   0  0  0  0  0  0  0  0  0  0  0  0
   35.0325  -11.9928   36.8038 C   0  0  0  0  0  0  0  0  0  0  0  0
   33.9224  -12.1825   37.7898 C   0  0  0  0  0  0  0  0  0  0  0  0
   33.1722  -10.9781   38.0181 N   0  0  0  0  0  0  0  0  0  0  0  0
   31.8075  -11.2273   37.5440 C   0  0  0  0  0  0  0  0  0  0  0  0
   33.7190   -9.8254   37.3462 C   0  0  0  0  0  0  0  0  0  0  0  0
 19 20  1  0  0  0
 20  1  1  0  0  0
  1  2  2  0  0  0
  2  3  1  0  0  0
  3  4  2  0  0  0
  4 21  1  0  0  0
 21 23  1  0  0  0
 23 24  1  0  0  0
 24 25  1  0  0  0
 25 26  1  0  0  0
 26 27  1  0  0  0
 26 28  1  0  0  0
 28 29  1  0  0  0
  4  5  1  0  0  0
  5  6  2  0  0  0
  6  7  1  0  0  0
  7  8  2  0  0  0
  8  9  1  0  0  0
  9 10  2  0  0  0
 10 30  1  0  0  0
 30 31  1  0  0  0
 31 32  1  0  0  0
 32 33  1  0  0  0
 33 34  1  0  0  0
 34 35  1  0  0  0
 34 36  1  0  0  0
  6 11  1  0  0  0
 11 12  1  0  0  0
 12 13  1  0  0  0
 13 14  1  0  0  0
 14 15  1  0  0  0
 15 16  1  0  0  0
 15 17  1  0  0  0
 17 18  1  0  0  0
 10  1  1  0  0  0
 18 11  1  0  0  0
  8  3  1  0  0  0
 29 23  1  0  0  0
 21 22  1  0  0  0
M  END
> <minimizedAffinity>
-5.97024

> <CNNscore>
0.3049196899

> <CNNaffinity>
6.1800913811

> <CNN_VS>
1.8844316006

> <CNNaffinity_variance>
0.0773476511

$$$$
[H]c1c(OC([H])([H])C([H])([H])C([H])([H])N(C([H])([H])[H])C([H])([H])[H])c(OC([H])([H])[H])c([H])c2c(N([H])C3([H])C([H])([H])C([H])([H])N(C([H])([H])[H])C([H])([H])C3([H])[H])nc(N3C([H])([H])C([H])([H])N(C([H])([H])[H])C([H])([H])C([H])([H])C3([H])[H])nc12


 36 39  0  0  0  0  0  0  0  0999 V2000
   40.3329  -19.6569   37.3280 C   0  0  0  0  0  0  0  0  0  0  0  0
   39.4020  -18.6179   37.1525 C   0  0  0  0  0  0  0  0  0  0  0  0
   38.1223  -18.8839   36.7225 C   0  0  0  0  0  0  0  0  0  0  0  0
   37.2015  -17.8773   36.5460 C   0  0  0  0  0  0  0  0  0  0  0  0
   35.9518  -18.2197   36.1165 N   0  0  0  0  0  0  0  0  0  0  0  0
   35.5923  -19.4812   35.8637 C   0  0  0  0  0  0  0  0  0  0  0  0
   36.5264  -20.4380   36.0499 N   0  0  0  0  0  0  0  0  0  0  0  0
   37.7799  -20.2104   36.4678 C   0  0  0  0  0  0  0  0  0  0  0  0
   38.7087  -21.2080   36.6474 C   0  0  0  0  0  0  0  0  0  0  0  0
   39.9951  -20.9670   37.0766 C   0  0  0  0  0  0  0  0  0  0  0  0
   34.2764  -19.7980   35.4165 N   0  0  0  0  0  0  0  0  0  0  0  0
   34.1472  -19.9981   34.0144 C   0  0  0  0  0  0  0  0  0  0  0  0
   32.7219  -20.0173   33.5296 C   0  0  0  0  0  0  0  0  0  0  0  0
   31.8290  -20.8841   34.3495 C   0  0  0  0  0  0  0  0  0  0  0  0
   31.1678  -20.1705   35.3959 N   0  0  0  0  0  0  0  0  0  0  0  0
   29.8597  -19.6958   35.0707 C   0  0  0  0  0  0  0  0  0  0  0  0
   31.9867  -19.2149   36.0810 C   0  0  0  0  0  0  0  0  0  0  0  0
   33.2955  -19.8625   36.4645 C   0  0  0  0  0  0  0  0  0  0  0  0
   41.9932  -19.3117   39.1061 C   0  0  0  0  0  0  0  0  0  0  0  0
   41.6010  -19.3478   37.7592 O   0  0  0  0  0  0  0  0  0  0  0  0
   37.5048  -16.5149   36.8038 N   0  0  0  0  0  0  0  0  0  0  0  0
   38.4692  -16.1935   36.8701 H   0  0  0  0  0  0  0  0  0  0  0  0
   36.4293  -15.5594   36.9773 C   0  0  0  0  0  0  0  0  0  0  0  0
   37.0122  -14.1536   37.0748 C   0  0  0  0  0  0  0  0  0  0  0  0
   35.9509  -13.1302   37.2203 C   0  0  0  0  0  0  0  0  0  0  0  0
   34.6288  -13.5261   36.9841 N   0  0  0  0  0  0  0  0  0  0  0  0
   33.6404  -13.1357   37.9196 C   0  0  0  0  0  0  0  0  0  0  0  0
   34.3502  -14.6151   36.1491 C   0  0  0  0  0  0  0  0  0  0  0  0
   35.5070  -15.4872   35.7676 C   0  0  0  0  0  0  0  0  0  0  0  0
   40.9609  -21.9399   37.2704 O   0  0  0  0  0  0  0  0  0  0  0  0
   42.0249  -22.2092   36.4113 C   0  0  0  0  0  0  0  0  0  0  0  0
   41.4852  -22.0966   34.9836 C   0  0  0  0  0  0  0  0  0  0  0  0
   42.1969  -20.9644   34.3112 C   0  0  0  0  0  0  0  0  0  0  0  0
   41.3125  -19.8909   33.9491 N   0  0  0  0  0  0  0  0  0  0  0  0
   40.8710  -20.1450   32.5745 C   0  0  0  0  0  0  0  0  0  0  0  0
   41.9267  -18.5889   34.0313 C   0  0  0  0  0  0  0  0  0  0  0  0
 19 20  1  0  0  0
 20  1  1  0  0  0
  1  2  2  0  0  0
  2  3  1  0  0  0
  3  4  2  0  0  0
  4 21  1  0  0  0
 21 23  1  0  0  0
 23 24  1  0  0  0
 24 25  1  0  0  0
 25 26  1  0  0  0
 26 27  1  0  0  0
 26 28  1  0  0  0
 28 29  1  0  0  0
  4  5  1  0  0  0
  5  6  2  0  0  0
  6  7  1  0  0  0
  7  8  2  0  0  0
  8  9  1  0  0  0
  9 10  2  0  0  0
 10 30  1  0  0  0
 30 31  1  0  0  0
 31 32  1  0  0  0
 32 33  1  0  0  0
 33 34  1  0  0  0
 34 35  1  0  0  0
 34 36  1  0  0  0
  6 11  1  0  0  0
 11 12  1  0  0  0
 12 13  1  0  0  0
 13 14  1  0  0  0
 14 15  1  0  0  0
 15 16  1  0  0  0
 15 17  1  0  0  0
 17 18  1  0  0  0
 10  1  1  0  0  0
 18 11  1  0  0  0
  8  3  1  0  0  0
 29 23  1  0  0  0
 21 22  1  0  0  0
M  END
> <minimizedAffinity>
-5.87044

> <CNNscore>
0.3048701882

> <CNNaffinity>
6.1173171997

> <CNN_VS>
1.8649876118

> <CNNaffinity_variance>
0.0882338062

$$$$
[H]c1c(OC([H])([H])C([H])([H])C([H])([H])N(C([H])([H])[H])C([H])([H])[H])c(OC([H])([H])[H])c([H])c2c(N([H])C3([H])C([H])([H])C([H])([H])N(C([H])([H])[H])C([H])([H])C3([H])[H])nc(N3C([H])([H])C([H])([H])N(C([H])([H])[H])C([H])([H])C([H])([H])C3([H])[H])nc12


 36 39  0  0  0  0  0  0  0  0999 V2000
   34.8990  -22.3736   36.9870 C   0  0  0  0  0  0  0  0  0  0  0  0
   36.0796  -21.6160   37.0823 C   0  0  0  0  0  0  0  0  0  0  0  0
   36.0391  -20.2411   37.0466 C   0  0  0  0  0  0  0  0  0  0  0  0
   37.1861  -19.4873   37.1383 C   0  0  0  0  0  0  0  0  0  0  0  0
   37.0654  -18.1283   37.0950 N   0  0  0  0  0  0  0  0  0  0  0  0
   35.8888  -17.5085   36.9685 C   0  0  0  0  0  0  0  0  0  0  0  0
   34.7884  -18.2858   36.8818 N   0  0  0  0  0  0  0  0  0  0  0  0
   34.7957  -19.6262   36.9138 C   0  0  0  0  0  0  0  0  0  0  0  0
   33.6561  -20.3898   36.8228 C   0  0  0  0  0  0  0  0  0  0  0  0
   33.6709  -21.7667   36.8559 C   0  0  0  0  0  0  0  0  0  0  0  0
   35.8046  -16.0862   36.9274 N   0  0  0  0  0  0  0  0  0  0  0  0
   36.8901  -15.3993   37.5378 C   0  0  0  0  0  0  0  0  0  0  0  0
   36.6350  -13.9327   37.7627 C   0  0  0  0  0  0  0  0  0  0  0  0
   36.0745  -13.2390   36.5688 C   0  0  0  0  0  0  0  0  0  0  0  0
   34.6463  -13.1998   36.5670 N   0  0  0  0  0  0  0  0  0  0  0  0
   34.0737  -12.0112   37.1161 C   0  0  0  0  0  0  0  0  0  0  0  0
   34.0123  -14.4108   36.9969 C   0  0  0  0  0  0  0  0  0  0  0  0
   34.6295  -15.5824   36.2717 C   0  0  0  0  0  0  0  0  0  0  0  0
   36.1717  -24.4593   37.2461 C   0  0  0  0  0  0  0  0  0  0  0  0
   34.9839  -23.7450   37.0268 O   0  0  0  0  0  0  0  0  0  0  0  0
   38.4711  -20.0722   37.2852 N   0  0  0  0  0  0  0  0  0  0  0  0
   38.7006  -20.6418   38.0978 H   0  0  0  0  0  0  0  0  0  0  0  0
   39.4786  -19.8590   36.2657 C   0  0  0  0  0  0  0  0  0  0  0  0
   40.5975  -18.9923   36.8337 C   0  0  0  0  0  0  0  0  0  0  0  0
   41.6743  -18.7693   35.8409 C   0  0  0  0  0  0  0  0  0  0  0  0
   41.6654  -19.5573   34.6836 N   0  0  0  0  0  0  0  0  0  0  0  0
   41.8548  -18.9118   33.4378 C   0  0  0  0  0  0  0  0  0  0  0  0
   41.0544  -20.8173   34.6851 C   0  0  0  0  0  0  0  0  0  0  0  0
   40.1856  -21.1455   35.8605 C   0  0  0  0  0  0  0  0  0  0  0  0
   32.5492  -22.5733   36.7674 O   0  0  0  0  0  0  0  0  0  0  0  0
   31.5947  -22.7480   37.7680 C   0  0  0  0  0  0  0  0  0  0  0  0
   32.2062  -23.6889   38.8087 C   0  0  0  0  0  0  0  0  0  0  0  0
   32.0481  -23.0515   40.1538 C   0  0  0  0  0  0  0  0  0  0  0  0
   33.2894  -22.9579   40.8721 N   0  0  0  0  0  0  0  0  0  0  0  0
   33.8256  -21.6156   40.6272 C   0  0  0  0  0  0  0  0  0  0  0  0
   34.2579  -23.9498   40.4757 C   0  0  0  0  0  0  0  0  0  0  0  0
 19 20  1  0  0  0
 20  1  1  0  0  0
  1  2  2  0  0  0
  2  3  1  0  0  0
  3  4  2  0  0  0
  4 21  1  0  0  0
 21 23  1  0  0  0
 23 24  1  0  0  0
 24 25  1  0  0  0
 25 26  1  0  0  0
 26 27  1  0  0  0
 26 28  1  0  0  0
 28 29  1  0  0  0
  4  5  1  0  0  0
  5  6  2  0  0  0
  6  7  1  0  0  0
  7  8  2  0  0  0
  8  9  1  0  0  0
  9 10  2  0  0  0
 10 30  1  0  0  0
 30 31  1  0  0  0
 31 32  1  0  0  0
 32 33  1  0  0  0
 33 34  1  0  0  0
 34 35  1  0  0  0
 34 36  1  0  0  0
  6 11  1  0  0  0
 11 12  1  0  0  0
 12 13  1  0  0  0
 13 14  1  0  0  0
 14 15  1  0  0  0
 15 16  1  0  0  0
 15 17  1  0  0  0
 17 18  1  0  0  0
 10  1  1  0  0  0
 18 11  1  0  0  0
  8  3  1  0  0  0
 29 23  1  0  0  0
 21 22  1  0  0  0
M  END
> <minimizedAffinity>
-5.11091

> <CNNscore>
0.2772529721

> <CNNaffinity>
5.8100204468

> <CNN_VS>
1.6108454466

> <CNNaffinity_variance>
0.1419711411

$$$$
[H]c1c(OC([H])([H])C([H])([H])C([H])([H])N(C([H])([H])[H])C([H])([H])[H])c(OC([H])([H])[H])c([H])c2c(N([H])C3([H])C([H])([H])C([H])([H])N(C([H])([H])[H])C([H])([H])C3([H])[H])nc(N3C([H])([H])C([H])([H])N(C([H])([H])[H])C([H])([H])C([H])([H])C3([H])[H])nc12


 36 39  0  0  0  0  0  0  0  0999 V2000
   38.4422  -20.8771   35.9253 C   0  0  0  0  0  0  0  0  0  0  0  0
   37.2476  -20.4098   35.3495 C   0  0  0  0  0  0  0  0  0  0  0  0
   36.8253  -19.1165   35.5551 C   0  0  0  0  0  0  0  0  0  0  0  0
   35.6586  -18.6461   34.9984 C   0  0  0  0  0  0  0  0  0  0  0  0
   35.3055  -17.3514   35.2481 N   0  0  0  0  0  0  0  0  0  0  0  0
   36.0414  -16.5321   36.0043 C   0  0  0  0  0  0  0  0  0  0  0  0
   37.1786  -17.0340   36.5311 N   0  0  0  0  0  0  0  0  0  0  0  0
   37.6162  -18.2882   36.3488 C   0  0  0  0  0  0  0  0  0  0  0  0
   38.7800  -18.7694   36.9002 C   0  0  0  0  0  0  0  0  0  0  0  0
   39.2234  -20.0593   36.7092 C   0  0  0  0  0  0  0  0  0  0  0  0
   35.6383  -15.1856   36.2413 N   0  0  0  0  0  0  0  0  0  0  0  0
   36.6915  -14.2900   36.5752 C   0  0  0  0  0  0  0  0  0  0  0  0
   36.2190  -12.9696   37.1228 C   0  0  0  0  0  0  0  0  0  0  0  0
   35.1300  -12.3494   36.3165 C   0  0  0  0  0  0  0  0  0  0  0  0
   33.8249  -12.6921   36.7864 N   0  0  0  0  0  0  0  0  0  0  0  0
   33.2417  -11.7512   37.6902 C   0  0  0  0  0  0  0  0  0  0  0  0
   33.6696  -14.0608   37.1812 C   0  0  0  0  0  0  0  0  0  0  0  0
   34.2264  -14.9581   36.1022 C   0  0  0  0  0  0  0  0  0  0  0  0
   39.1967  -22.6822   34.4389 C   0  0  0  0  0  0  0  0  0  0  0  0
   38.8278  -22.1762   35.6947 O   0  0  0  0  0  0  0  0  0  0  0  0
   34.8293  -19.4522   34.1755 N   0  0  0  0  0  0  0  0  0  0  0  0
   35.1477  -19.7764   33.2638 H   0  0  0  0  0  0  0  0  0  0  0  0
   33.5056  -19.8236   34.6335 C   0  0  0  0  0  0  0  0  0  0  0  0
   33.5859  -20.2994   36.0802 C   0  0  0  0  0  0  0  0  0  0  0  0
   32.2513  -20.6617   36.6117 C   0  0  0  0  0  0  0  0  0  0  0  0
   31.1290  -20.2824   35.8654 N   0  0  0  0  0  0  0  0  0  0  0  0
   30.1173  -21.2486   35.6478 C   0  0  0  0  0  0  0  0  0  0  0  0
   31.1897  -19.1867   34.9956 C   0  0  0  0  0  0  0  0  0  0  0  0
   32.5508  -18.6387   34.6932 C   0  0  0  0  0  0  0  0  0  0  0  0
   40.3872  -20.5845   37.2448 O   0  0  0  0  0  0  0  0  0  0  0  0
   41.6658  -20.0536   37.0839 C   0  0  0  0  0  0  0  0  0  0  0  0
   41.9531  -19.1991   38.3206 C   0  0  0  0  0  0  0  0  0  0  0  0
   41.7196  -20.0487   39.5307 C   0  0  0  0  0  0  0  0  0  0  0  0
   42.7474  -19.8940   40.5232 N   0  0  0  0  0  0  0  0  0  0  0  0
   42.1493  -19.1715   41.6499 C   0  0  0  0  0  0  0  0  0  0  0  0
   43.9045  -19.1791   40.0444 C   0  0  0  0  0  0  0  0  0  0  0  0
 19 20  1  0  0  0
 20  1  1  0  0  0
  1  2  2  0  0  0
  2  3  1  0  0  0
  3  4  2  0  0  0
  4 21  1  0  0  0
 21 23  1  0  0  0
 23 24  1  0  0  0
 24 25  1  0  0  0
 25 26  1  0  0  0
 26 27  1  0  0  0
 26 28  1  0  0  0
 28 29  1  0  0  0
  4  5  1  0  0  0
  5  6  2  0  0  0
  6  7  1  0  0  0
  7  8  2  0  0  0
  8  9  1  0  0  0
  9 10  2  0  0  0
 10 30  1  0  0  0
 30 31  1  0  0  0
 31 32  1  0  0  0
 32 33  1  0  0  0
 33 34  1  0  0  0
 34 35  1  0  0  0
 34 36  1  0  0  0
  6 11  1  0  0  0
 11 12  1  0  0  0
 12 13  1  0  0  0
 13 14  1  0  0  0
 14 15  1  0  0  0
 15 16  1  0  0  0
 15 17  1  0  0  0
 17 18  1  0  0  0
 10  1  1  0  0  0
 18 11  1  0  0  0
  8  3  1  0  0  0
 29 23  1  0  0  0
 21 22  1  0  0  0
M  END
> <minimizedAffinity>
-6.68038

> <CNNscore>
0.2508882284

> <CNNaffinity>
6.1991186142

> <CNN_VS>
1.5552859306

> <CNNaffinity_variance>
0.2494874299

$$$$
[H]c1c(C2([H])C([H])([H])C([H])([H])OC([H])([H])C2([H])[H])nc2c([H])c(OC([H])([H])C([H])([H])C([H])([H])N3C([H])([H])C([H])([H])C([H])([H])C3([H])[H])c(OC([H])([H])[H])c([H])c2c1N([H])C1([H])C([H])([H])C([H])([H])N(C([H])([H])[H])C([H])([H])C1([H])[H]


 36 40  0  0  0  0  0  0  0  0999 V2000
   35.9158  -14.3976   36.4669 C   0  0  0  0  0  0  0  0  0  0  0  0
   36.4586  -15.6399   36.1247 C   0  0  0  0  0  0  0  0  0  0  0  0
   35.7132  -16.6967   35.6720 C   0  0  0  0  0  0  0  0  0  0  0  0
   36.2630  -17.9105   35.3396 C   0  0  0  0  0  0  0  0  0  0  0  0
   35.3945  -18.9036   34.8906 C   0  0  0  0  0  0  0  0  0  0  0  0
   34.0402  -18.7281   34.7674 C   0  0  0  0  0  0  0  0  0  0  0  0
   33.5574  -17.5221   35.1061 N   0  0  0  0  0  0  0  0  0  0  0  0
   34.3274  -16.5089   35.5489 C   0  0  0  0  0  0  0  0  0  0  0  0
   33.7964  -15.2822   35.8873 C   0  0  0  0  0  0  0  0  0  0  0  0
   34.5619  -14.2330   36.3404 C   0  0  0  0  0  0  0  0  0  0  0  0
   33.1069  -19.7539   34.3014 C   0  0  0  0  0  0  0  0  0  0  0  0
   33.2010  -20.9230   35.2905 C   0  0  0  0  0  0  0  0  0  0  0  0
   32.1009  -21.8904   34.9334 C   0  0  0  0  0  0  0  0  0  0  0  0
   30.8519  -21.3646   35.1539 O   0  0  0  0  0  0  0  0  0  0  0  0
   30.8453  -19.9950   35.3243 C   0  0  0  0  0  0  0  0  0  0  0  0
   31.6830  -19.3390   34.2293 C   0  0  0  0  0  0  0  0  0  0  0  0
   37.8926  -13.4561   37.6060 C   0  0  0  0  0  0  0  0  0  0  0  0
   36.6881  -13.3709   36.9131 O   0  0  0  0  0  0  0  0  0  0  0  0
   37.6410  -18.1311   35.4696 N   0  0  0  0  0  0  0  0  0  0  0  0
   38.2110  -17.5579   36.1176 H   0  0  0  0  0  0  0  0  0  0  0  0
   38.3678  -19.1527   34.7330 C   0  0  0  0  0  0  0  0  0  0  0  0
   39.3772  -19.8197   35.6784 C   0  0  0  0  0  0  0  0  0  0  0  0
   40.5775  -18.9344   35.8674 C   0  0  0  0  0  0  0  0  0  0  0  0
   41.3299  -18.7486   34.6553 N   0  0  0  0  0  0  0  0  0  0  0  0
   42.5616  -19.4930   34.7485 C   0  0  0  0  0  0  0  0  0  0  0  0
   40.5518  -19.2231   33.5534 C   0  0  0  0  0  0  0  0  0  0  0  0
   39.1637  -18.5720   33.5770 C   0  0  0  0  0  0  0  0  0  0  0  0
   33.9748  -12.9956   36.6754 O   0  0  0  0  0  0  0  0  0  0  0  0
   33.7061  -12.6202   37.9893 C   0  0  0  0  0  0  0  0  0  0  0  0
   32.2266  -12.8338   38.2374 C   0  0  0  0  0  0  0  0  0  0  0  0
   31.4732  -11.8594   37.3528 C   0  0  0  0  0  0  0  0  0  0  0  0
   30.0507  -11.9908   37.5882 N   0  0  0  0  0  0  0  0  0  0  0  0
   29.7776  -12.5321   38.9271 C   0  0  0  0  0  0  0  0  0  0  0  0
   28.2601  -12.3654   38.9688 C   0  0  0  0  0  0  0  0  0  0  0  0
   28.0974  -11.0056   38.3032 C   0  0  0  0  0  0  0  0  0  0  0  0
   29.4664  -10.6583   37.7320 C   0  0  0  0  0  0  0  0  0  0  0  0
 17 18  1  0  0  0
 18  1  1  0  0  0
  1  2  2  0  0  0
  2  3  1  0  0  0
  3  4  2  0  0  0
  4 19  1  0  0  0
 19 21  1  0  0  0
 21 22  1  0  0  0
 22 23  1  0  0  0
 23 24  1  0  0  0
 24 25  1  0  0  0
 24 26  1  0  0  0
 26 27  1  0  0  0
  4  5  1  0  0  0
  5  6  2  0  0  0
  6  7  1  0  0  0
  7  8  2  0  0  0
  8  9  1  0  0  0
  9 10  2  0  0  0
 10 28  1  0  0  0
 28 29  1  0  0  0
 29 30  1  0  0  0
 30 31  1  0  0  0
 31 32  1  0  0  0
 32 33  1  0  0  0
 33 34  1  0  0  0
 34 35  1  0  0  0
 35 36  1  0  0  0
  6 11  1  0  0  0
 11 12  1  0  0  0
 12 13  1  0  0  0
 13 14  1  0  0  0
 14 15  1  0  0  0
 15 16  1  0  0  0
 10  1  1  0  0  0
 36 32  1  0  0  0
 16 11  1  0  0  0
  8  3  1  0  0  0
 27 21  1  0  0  0
 19 20  1  0  0  0
M  END
> <minimizedAffinity>
-8.80292

> <CNNscore>
0.8697505593

> <CNNaffinity>
7.2458672523

> <CNN_VS>
6.3020973206

> <CNNaffinity_variance>
0.0591438711

$$$$
[H]c1c(C2([H])C([H])([H])C([H])([H])OC([H])([H])C2([H])[H])nc2c([H])c(OC([H])([H])C([H])([H])C([H])([H])N3C([H])([H])C([H])([H])C([H])([H])C3([H])[H])c(OC([H])([H])[H])c([H])c2c1N([H])C1([H])C([H])([H])C([H])([H])N(C([H])([H])[H])C([H])([H])C1([H])[H]


 36 40  0  0  0  0  0  0  0  0999 V2000
   35.9773  -14.2359   36.8355 C   0  0  0  0  0  0  0  0  0  0  0  0
   36.4703  -15.4096   36.2572 C   0  0  0  0  0  0  0  0  0  0  0  0
   35.6724  -16.3896   35.7276 C   0  0  0  0  0  0  0  0  0  0  0  0
   36.1737  -17.5366   35.1625 C   0  0  0  0  0  0  0  0  0  0  0  0
   35.2543  -18.4547   34.6586 C   0  0  0  0  0  0  0  0  0  0  0  0
   33.8964  -18.2693   34.6998 C   0  0  0  0  0  0  0  0  0  0  0  0
   33.4625  -17.1307   35.2632 N   0  0  0  0  0  0  0  0  0  0  0  0
   34.2833  -16.1921   35.7740 C   0  0  0  0  0  0  0  0  0  0  0  0
   33.8015  -15.0332   36.3451 C   0  0  0  0  0  0  0  0  0  0  0  0
   34.6193  -14.0607   36.8719 C   0  0  0  0  0  0  0  0  0  0  0  0
   32.9106  -19.2176   34.1807 C   0  0  0  0  0  0  0  0  0  0  0  0
   33.3378  -20.6107   34.6609 C   0  0  0  0  0  0  0  0  0  0  0  0
   32.2221  -21.5599   34.3037 C   0  0  0  0  0  0  0  0  0  0  0  0
   31.0718  -21.3012   35.0070 O   0  0  0  0  0  0  0  0  0  0  0  0
   31.0590  -20.0649   35.6203 C   0  0  0  0  0  0  0  0  0  0  0  0
   31.5121  -18.9966   34.6281 C   0  0  0  0  0  0  0  0  0  0  0  0
   38.1598  -13.4017   37.6309 C   0  0  0  0  0  0  0  0  0  0  0  0
   36.8010  -13.2846   37.3515 O   0  0  0  0  0  0  0  0  0  0  0  0
   37.5553  -17.7675   35.1187 N   0  0  0  0  0  0  0  0  0  0  0  0
   38.2236  -17.0518   35.4572 H   0  0  0  0  0  0  0  0  0  0  0  0
   38.1532  -18.9932   34.6139 C   0  0  0  0  0  0  0  0  0  0  0  0
   39.0004  -19.6250   35.7276 C   0  0  0  0  0  0  0  0  0  0  0  0
   40.3111  -18.9005   35.8598 C   0  0  0  0  0  0  0  0  0  0  0  0
   41.1424  -19.0343   34.6932 N   0  0  0  0  0  0  0  0  0  0  0  0
   42.2396  -19.9194   34.9976 C   0  0  0  0  0  0  0  0  0  0  0  0
   40.3567  -19.5750   33.6278 C   0  0  0  0  0  0  0  0  0  0  0  0
   39.0850  -18.7386   33.4418 C   0  0  0  0  0  0  0  0  0  0  0  0
   34.0814  -12.8909   37.4468 O   0  0  0  0  0  0  0  0  0  0  0  0
   32.7524  -12.5109   37.2777 C   0  0  0  0  0  0  0  0  0  0  0  0
   32.0535  -12.6684   38.6129 C   0  0  0  0  0  0  0  0  0  0  0  0
   30.5964  -12.3012   38.4082 C   0  0  0  0  0  0  0  0  0  0  0  0
   29.8844  -12.4241   39.6629 N   0  0  0  0  0  0  0  0  0  0  0  0
   28.8727  -13.4884   39.6021 C   0  0  0  0  0  0  0  0  0  0  0  0
   28.4492  -13.5267   41.0689 C   0  0  0  0  0  0  0  0  0  0  0  0
   29.7927  -13.3564   41.7651 C   0  0  0  0  0  0  0  0  0  0  0  0
   30.7837  -12.9893   40.6677 C   0  0  0  0  0  0  0  0  0  0  0  0
 17 18  1  0  0  0
 18  1  1  0  0  0
  1  2  2  0  0  0
  2  3  1  0  0  0
  3  4  2  0  0  0
  4 19  1  0  0  0
 19 21  1  0  0  0
 21 22  1  0  0  0
 22 23  1  0  0  0
 23 24  1  0  0  0
 24 25  1  0  0  0
 24 26  1  0  0  0
 26 27  1  0  0  0
  4  5  1  0  0  0
  5  6  2  0  0  0
  6  7  1  0  0  0
  7  8  2  0  0  0
  8  9  1  0  0  0
  9 10  2  0  0  0
 10 28  1  0  0  0
 28 29  1  0  0  0
 29 30  1  0  0  0
 30 31  1  0  0  0
 31 32  1  0  0  0
 32 33  1  0  0  0
 33 34  1  0  0  0
 34 35  1  0  0  0
 35 36  1  0  0  0
  6 11  1  0  0  0
 11 12  1  0  0  0
 12 13  1  0  0  0
 13 14  1  0  0  0
 14 15  1  0  0  0
 15 16  1  0  0  0
 10  1  1  0  0  0
 36 32  1  0  0  0
 16 11  1  0  0  0
  8  3  1  0  0  0
 27 21  1  0  0  0
 19 20  1  0  0  0
M  END
> <minimizedAffinity>
-8.31913

> <CNNscore>
0.8579114079

> <CNNaffinity>
7.1231307983

> <CNN_VS>
6.1110153198

> <CNNaffinity_variance>
0.0655345768

$$$$
[H]c1c(C2([H])C([H])([H])C([H])([H])OC([H])([H])C2([H])[H])nc2c([H])c(OC([H])([H])C([H])([H])C([H])([H])N3C([H])([H])C([H])([H])C([H])([H])C3([H])[H])c(OC([H])([H])[H])c([H])c2c1N([H])C1([H])C([H])([H])C([H])([H])N(C([H])([H])[H])C([H])([H])C1([H])[H]


 36 40  0  0  0  0  0  0  0  0999 V2000
   35.8603  -14.6584   36.4571 C   0  0  0  0  0  0  0  0  0  0  0  0
   36.3706  -15.8874   36.0278 C   0  0  0  0  0  0  0  0  0  0  0  0
   35.5900  -16.9182   35.5746 C   0  0  0  0  0  0  0  0  0  0  0  0
   36.1080  -18.1193   35.1559 C   0  0  0  0  0  0  0  0  0  0  0  0
   35.2052  -19.0858   34.7167 C   0  0  0  0  0  0  0  0  0  0  0  0
   33.8476  -18.8967   34.6837 C   0  0  0  0  0  0  0  0  0  0  0  0
   33.3968  -17.7042   35.1043 N   0  0  0  0  0  0  0  0  0  0  0  0
   34.2010  -16.7166   35.5441 C   0  0  0  0  0  0  0  0  0  0  0  0
   33.7021  -15.5031   35.9683 C   0  0  0  0  0  0  0  0  0  0  0  0
   34.5028  -14.4800   36.4203 C   0  0  0  0  0  0  0  0  0  0  0  0
   32.8789  -19.8949   34.2300 C   0  0  0  0  0  0  0  0  0  0  0  0
   32.9590  -21.0707   35.2122 C   0  0  0  0  0  0  0  0  0  0  0  0
   31.8271  -22.0065   34.8706 C   0  0  0  0  0  0  0  0  0  0  0  0
   30.5968  -21.4485   35.1156 O   0  0  0  0  0  0  0  0  0  0  0  0
   30.6301  -20.0800   35.2920 C   0  0  0  0  0  0  0  0  0  0  0  0
   31.4657  -19.4415   34.1851 C   0  0  0  0  0  0  0  0  0  0  0  0
   37.9558  -13.7732   37.4149 C   0  0  0  0  0  0  0  0  0  0  0  0
   36.6672  -13.6575   36.9008 O   0  0  0  0  0  0  0  0  0  0  0  0
   37.4893  -18.3539   35.1922 N   0  0  0  0  0  0  0  0  0  0  0  0
   38.0654  -18.0077   35.9807 H   0  0  0  0  0  0  0  0  0  0  0  0
   38.2115  -19.0829   34.1619 C   0  0  0  0  0  0  0  0  0  0  0  0
   38.6789  -20.4255   34.7419 C   0  0  0  0  0  0  0  0  0  0  0  0
   39.8876  -20.2242   35.6129 C   0  0  0  0  0  0  0  0  0  0  0  0
   41.0346  -19.7626   34.8772 N   0  0  0  0  0  0  0  0  0  0  0  0
   41.9863  -20.8406   34.7666 C   0  0  0  0  0  0  0  0  0  0  0  0
   40.6102  -19.3472   33.5764 C   0  0  0  0  0  0  0  0  0  0  0  0
   39.4561  -18.3449   33.7002 C   0  0  0  0  0  0  0  0  0  0  0  0
   33.9478  -13.2553   36.8448 O   0  0  0  0  0  0  0  0  0  0  0  0
   32.6589  -13.1512   37.3619 C   0  0  0  0  0  0  0  0  0  0  0  0
   32.3946  -11.6876   37.6523 C   0  0  0  0  0  0  0  0  0  0  0  0
   33.7224  -11.0497   38.0123 C   0  0  0  0  0  0  0  0  0  0  0  0
   33.6953   -9.6444   37.6648 N   0  0  0  0  0  0  0  0  0  0  0  0
   34.4354   -9.3862   36.4215 C   0  0  0  0  0  0  0  0  0  0  0  0
   34.0689   -7.9200   36.2022 C   0  0  0  0  0  0  0  0  0  0  0  0
   32.5988   -7.9241   36.5993 C   0  0  0  0  0  0  0  0  0  0  0  0
   32.3453   -9.2864   37.2325 C   0  0  0  0  0  0  0  0  0  0  0  0
 17 18  1  0  0  0
 18  1  1  0  0  0
  1  2  2  0  0  0
  2  3  1  0  0  0
  3  4  2  0  0  0
  4 19  1  0  0  0
 19 21  1  0  0  0
 21 22  1  0  0  0
 22 23  1  0  0  0
 23 24  1  0  0  0
 24 25  1  0  0  0
 24 26  1  0  0  0
 26 27  1  0  0  0
  4  5  1  0  0  0
  5  6  2  0  0  0
  6  7  1  0  0  0
  7  8  2  0  0  0
  8  9  1  0  0  0
  9 10  2  0  0  0
 10 28  1  0  0  0
 28 29  1  0  0  0
 29 30  1  0  0  0
 30 31  1  0  0  0
 31 32  1  0  0  0
 32 33  1  0  0  0
 33 34  1  0  0  0
 34 35  1  0  0  0
 35 36  1  0  0  0
  6 11  1  0  0  0
 11 12  1  0  0  0
 12 13  1  0  0  0
 13 14  1  0  0  0
 14 15  1  0  0  0
 15 16  1  0  0  0
 10  1  1  0  0  0
 36 32  1  0  0  0
 16 11  1  0  0  0
  8  3  1  0  0  0
 27 21  1  0  0  0
 19 20  1  0  0  0
M  END
> <minimizedAffinity>
-7.87461

> <CNNscore>
0.8269209862

> <CNNaffinity>
7.3723630905

> <CNN_VS>
6.0963616371

> <CNNaffinity_variance>
0.0489014797

$$$$
[H]c1c(C2([H])C([H])([H])C([H])([H])OC([H])([H])C2([H])[H])nc2c([H])c(OC([H])([H])C([H])([H])C([H])([H])N3C([H])([H])C([H])([H])C([H])([H])C3([H])[H])c(OC([H])([H])[H])c([H])c2c1N([H])C1([H])C([H])([H])C([H])([H])N(C([H])([H])[H])C([H])([H])C1([H])[H]


 36 40  0  0  0  0  0  0  0  0999 V2000
   32.0191  -19.0692   35.5237 C   0  0  0  0  0  0  0  0  0  0  0  0
   32.8405  -17.9443   35.6454 C   0  0  0  0  0  0  0  0  0  0  0  0
   34.1944  -17.9651   35.4356 C   0  0  0  0  0  0  0  0  0  0  0  0
   34.9866  -16.8500   35.5589 C   0  0  0  0  0  0  0  0  0  0  0  0
   36.3502  -17.0055   35.3170 C   0  0  0  0  0  0  0  0  0  0  0  0
   36.9276  -18.1990   34.9676 C   0  0  0  0  0  0  0  0  0  0  0  0
   36.1060  -19.2555   34.8616 N   0  0  0  0  0  0  0  0  0  0  0  0
   34.7777  -19.1911   35.0784 C   0  0  0  0  0  0  0  0  0  0  0  0
   33.9639  -20.2978   34.9594 C   0  0  0  0  0  0  0  0  0  0  0  0
   32.6060  -20.2566   35.1747 C   0  0  0  0  0  0  0  0  0  0  0  0
   38.3553  -18.3895   34.7109 C   0  0  0  0  0  0  0  0  0  0  0  0
   38.9654  -18.9637   35.9962 C   0  0  0  0  0  0  0  0  0  0  0  0
   40.3864  -19.3509   35.6732 C   0  0  0  0  0  0  0  0  0  0  0  0
   40.4536  -20.3892   34.7775 O   0  0  0  0  0  0  0  0  0  0  0  0
   39.2667  -20.6335   34.1166 C   0  0  0  0  0  0  0  0  0  0  0  0
   38.6880  -19.3181   33.6010 C   0  0  0  0  0  0  0  0  0  0  0  0
   29.6645  -19.0205   34.7855 C   0  0  0  0  0  0  0  0  0  0  0  0
   30.6777  -19.0099   35.7401 O   0  0  0  0  0  0  0  0  0  0  0  0
   34.4334  -15.6173   35.9313 N   0  0  0  0  0  0  0  0  0  0  0  0
   33.4900  -15.3393   35.6054 H   0  0  0  0  0  0  0  0  0  0  0  0
   35.1110  -14.6528   36.7828 C   0  0  0  0  0  0  0  0  0  0  0  0
   34.1153  -14.1317   37.8289 C   0  0  0  0  0  0  0  0  0  0  0  0
   33.1941  -13.1168   37.2113 C   0  0  0  0  0  0  0  0  0  0  0  0
   33.8811  -11.9268   36.7846 N   0  0  0  0  0  0  0  0  0  0  0  0
   33.5563  -10.8486   37.6856 C   0  0  0  0  0  0  0  0  0  0  0  0
   35.2891  -12.1761   36.8048 C   0  0  0  0  0  0  0  0  0  0  0  0
   35.6050  -13.4455   36.0047 C   0  0  0  0  0  0  0  0  0  0  0  0
   31.8129  -21.4148   35.0417 O   0  0  0  0  0  0  0  0  0  0  0  0
   31.4153  -22.1848   36.1318 C   0  0  0  0  0  0  0  0  0  0  0  0
   32.6433  -22.8896   36.6719 C   0  0  0  0  0  0  0  0  0  0  0  0
   32.7201  -22.5926   38.1570 C   0  0  0  0  0  0  0  0  0  0  0  0
   33.6893  -21.5429   38.3922 N   0  0  0  0  0  0  0  0  0  0  0  0
   34.0036  -21.4154   39.8222 C   0  0  0  0  0  0  0  0  0  0  0  0
   35.1596  -20.4202   39.7451 C   0  0  0  0  0  0  0  0  0  0  0  0
   35.9048  -20.9330   38.5202 C   0  0  0  0  0  0  0  0  0  0  0  0
   34.9913  -21.9746   37.8862 C   0  0  0  0  0  0  0  0  0  0  0  0
 17 18  1  0  0  0
 18  1  1  0  0  0
  1  2  2  0  0  0
  2  3  1  0  0  0
  3  4  2  0  0  0
  4 19  1  0  0  0
 19 21  1  0  0  0
 21 22  1  0  0  0
 22 23  1  0  0  0
 23 24  1  0  0  0
 24 25  1  0  0  0
 24 26  1  0  0  0
 26 27  1  0  0  0
  4  5  1  0  0  0
  5  6  2  0  0  0
  6  7  1  0  0  0
  7  8  2  0  0  0
  8  9  1  0  0  0
  9 10  2  0  0  0
 10 28  1  0  0  0
 28 29  1  0  0  0
 29 30  1  0  0  0
 30 31  1  0  0  0
 31 32  1  0  0  0
 32 33  1  0  0  0
 33 34  1  0  0  0
 34 35  1  0  0  0
 35 36  1  0  0  0
  6 11  1  0  0  0
 11 12  1  0  0  0
 12 13  1  0  0  0
 13 14  1  0  0  0
 14 15  1  0  0  0
 15 16  1  0  0  0
 10  1  1  0  0  0
 36 32  1  0  0  0
 16 11  1  0  0  0
  8  3  1  0  0  0
 27 21  1  0  0  0
 19 20  1  0  0  0
M  END
> <minimizedAffinity>
-6.22622

> <CNNscore>
0.4037079811

> <CNNaffinity>
6.5077590942

> <CNN_VS>
2.6272342205

> <CNNaffinity_variance>
0.1014164239

$$$$
[H]c1c(C2([H])C([H])([H])C([H])([H])OC([H])([H])C2([H])[H])nc2c([H])c(OC([H])([H])C([H])([H])C([H])([H])N3C([H])([H])C([H])([H])C([H])([H])C3([H])[H])c(OC([H])([H])[H])c([H])c2c1N([H])C1([H])C([H])([H])C([H])([H])N(C([H])([H])[H])C([H])([H])C1([H])[H]


 36 40  0  0  0  0  0  0  0  0999 V2000
   38.2267  -21.3534   36.7970 C   0  0  0  0  0  0  0  0  0  0  0  0
   36.9304  -20.8429   36.9151 C   0  0  0  0  0  0  0  0  0  0  0  0
   36.6077  -19.5292   36.6972 C   0  0  0  0  0  0  0  0  0  0  0  0
   35.3283  -19.0445   36.8171 C   0  0  0  0  0  0  0  0  0  0  0  0
   35.1334  -17.6875   36.5671 C   0  0  0  0  0  0  0  0  0  0  0  0
   36.1420  -16.8287   36.2131 C   0  0  0  0  0  0  0  0  0  0  0  0
   37.3721  -17.3565   36.1107 N   0  0  0  0  0  0  0  0  0  0  0  0
   37.6461  -18.6565   36.3354 C   0  0  0  0  0  0  0  0  0  0  0  0
   38.9230  -19.1641   36.2201 C   0  0  0  0  0  0  0  0  0  0  0  0
   39.2269  -20.4869   36.4433 C   0  0  0  0  0  0  0  0  0  0  0  0
   35.9648  -15.4009   35.9478 C   0  0  0  0  0  0  0  0  0  0  0  0
   34.5388  -15.0410   36.3846 C   0  0  0  0  0  0  0  0  0  0  0  0
   34.4202  -13.5400   36.3045 C   0  0  0  0  0  0  0  0  0  0  0  0
   35.2217  -12.9038   37.2198 O   0  0  0  0  0  0  0  0  0  0  0  0
   36.1911  -13.7160   37.7724 C   0  0  0  0  0  0  0  0  0  0  0  0
   36.8973  -14.4956   36.6658 C   0  0  0  0  0  0  0  0  0  0  0  0
   38.4974  -23.3372   38.2402 C   0  0  0  0  0  0  0  0  0  0  0  0
   38.5090  -22.6647   37.0213 O   0  0  0  0  0  0  0  0  0  0  0  0
   34.2757  -19.8897   37.1940 N   0  0  0  0  0  0  0  0  0  0  0  0
   34.0016  -19.9840   38.1886 H   0  0  0  0  0  0  0  0  0  0  0  0
   33.4989  -20.6805   36.2528 C   0  0  0  0  0  0  0  0  0  0  0  0
   33.0958  -19.7868   35.0711 C   0  0  0  0  0  0  0  0  0  0  0  0
   31.9452  -18.8997   35.4575 C   0  0  0  0  0  0  0  0  0  0  0  0
   30.7431  -19.6375   35.7415 N   0  0  0  0  0  0  0  0  0  0  0  0
   29.8056  -19.4405   34.6635 C   0  0  0  0  0  0  0  0  0  0  0  0
   31.0713  -21.0243   35.8591 C   0  0  0  0  0  0  0  0  0  0  0  0
   32.2129  -21.2060   36.8667 C   0  0  0  0  0  0  0  0  0  0  0  0
   40.5483  -20.9616   36.3137 O   0  0  0  0  0  0  0  0  0  0  0  0
   41.6620  -20.1375   36.4545 C   0  0  0  0  0  0  0  0  0  0  0  0
   42.3402  -20.0425   35.1028 C   0  0  0  0  0  0  0  0  0  0  0  0
   43.7374  -19.4999   35.3336 C   0  0  0  0  0  0  0  0  0  0  0  0
   43.6882  -18.0556   35.4225 N   0  0  0  0  0  0  0  0  0  0  0  0
   44.4079  -17.5676   36.6073 C   0  0  0  0  0  0  0  0  0  0  0  0
   44.3691  -16.0657   36.3330 C   0  0  0  0  0  0  0  0  0  0  0  0
   44.6219  -16.0366   34.8317 C   0  0  0  0  0  0  0  0  0  0  0  0
   44.5243  -17.4845   34.3677 C   0  0  0  0  0  0  0  0  0  0  0  0
 17 18  1  0  0  0
 18  1  1  0  0  0
  1  2  2  0  0  0
  2  3  1  0  0  0
  3  4  2  0  0  0
  4 19  1  0  0  0
 19 21  1  0  0  0
 21 22  1  0  0  0
 22 23  1  0  0  0
 23 24  1  0  0  0
 24 25  1  0  0  0
 24 26  1  0  0  0
 26 27  1  0  0  0
  4  5  1  0  0  0
  5  6  2  0  0  0
  6  7  1  0  0  0
  7  8  2  0  0  0
  8  9  1  0  0  0
  9 10  2  0  0  0
 10 28  1  0  0  0
 28 29  1  0  0  0
 29 30  1  0  0  0
 30 31  1  0  0  0
 31 32  1  0  0  0
 32 33  1  0  0  0
 33 34  1  0  0  0
 34 35  1  0  0  0
 35 36  1  0  0  0
  6 11  1  0  0  0
 11 12  1  0  0  0
 12 13  1  0  0  0
 13 14  1  0  0  0
 14 15  1  0  0  0
 15 16  1  0  0  0
 10  1  1  0  0  0
 36 32  1  0  0  0
 16 11  1  0  0  0
  8  3  1  0  0  0
 27 21  1  0  0  0
 19 20  1  0  0  0
M  END
> <minimizedAffinity>
-6.33277

> <CNNscore>
0.3815449178

> <CNNaffinity>
6.3620734215

> <CNN_VS>
2.4274168015

> <CNNaffinity_variance>
0.0485679582

$$$$
[H]c1c(C2([H])C([H])([H])C([H])([H])OC([H])([H])C2([H])[H])nc2c([H])c(OC([H])([H])C([H])([H])C([H])([H])N3C([H])([H])C([H])([H])C([H])([H])C3([H])[H])c(OC([H])([H])[H])c([H])c2c1N([H])C1([H])C([H])([H])C([H])([H])N(C([H])([H])[H])C([H])([H])C1([H])[H]


 36 40  0  0  0  0  0  0  0  0999 V2000
   38.4195  -21.0611   36.3782 C   0  0  0  0  0  0  0  0  0  0  0  0
   37.0796  -20.6947   36.5377 C   0  0  0  0  0  0  0  0  0  0  0  0
   36.6156  -19.4164   36.3696 C   0  0  0  0  0  0  0  0  0  0  0  0
   35.2953  -19.0740   36.5297 C   0  0  0  0  0  0  0  0  0  0  0  0
   34.9532  -17.7381   36.3285 C   0  0  0  0  0  0  0  0  0  0  0  0
   35.8576  -16.7668   35.9841 C   0  0  0  0  0  0  0  0  0  0  0  0
   37.1338  -17.1580   35.8410 N   0  0  0  0  0  0  0  0  0  0  0  0
   37.5481  -18.4279   36.0172 C   0  0  0  0  0  0  0  0  0  0  0  0
   38.8684  -18.7937   35.8609 C   0  0  0  0  0  0  0  0  0  0  0  0
   39.3148  -20.0831   36.0344 C   0  0  0  0  0  0  0  0  0  0  0  0
   35.5253  -15.3582   35.7696 C   0  0  0  0  0  0  0  0  0  0  0  0
   34.0825  -15.1631   36.2535 C   0  0  0  0  0  0  0  0  0  0  0  0
   33.8060  -13.6811   36.2250 C   0  0  0  0  0  0  0  0  0  0  0  0
   34.5625  -12.9916   37.1400 O   0  0  0  0  0  0  0  0  0  0  0  0
   35.6265  -13.7136   37.6415 C   0  0  0  0  0  0  0  0  0  0  0  0
   36.3784  -14.3817   36.4929 C   0  0  0  0  0  0  0  0  0  0  0  0
   38.2393  -23.5052   36.0851 C   0  0  0  0  0  0  0  0  0  0  0  0
   38.8432  -22.3415   36.5535 O   0  0  0  0  0  0  0  0  0  0  0  0
   34.3463  -20.0371   36.8984 N   0  0  0  0  0  0  0  0  0  0  0  0
   34.5680  -20.7536   37.6131 H   0  0  0  0  0  0  0  0  0  0  0  0
   33.0093  -20.1112   36.3312 C   0  0  0  0  0  0  0  0  0  0  0  0
   32.2474  -21.2584   37.0101 C   0  0  0  0  0  0  0  0  0  0  0  0
   32.6876  -22.5811   36.4474 C   0  0  0  0  0  0  0  0  0  0  0  0
   32.3511  -22.7355   35.0571 N   0  0  0  0  0  0  0  0  0  0  0  0
   31.2665  -23.6788   34.9386 C   0  0  0  0  0  0  0  0  0  0  0  0
   31.9551  -21.4643   34.5356 C   0  0  0  0  0  0  0  0  0  0  0  0
   33.0316  -20.4165   34.8435 C   0  0  0  0  0  0  0  0  0  0  0  0
   40.6755  -20.4110   35.8641 O   0  0  0  0  0  0  0  0  0  0  0  0
   41.6167  -19.4993   35.3924 C   0  0  0  0  0  0  0  0  0  0  0  0
   42.5556  -19.1715   36.5358 C   0  0  0  0  0  0  0  0  0  0  0  0
   42.7577  -20.4440   37.3356 C   0  0  0  0  0  0  0  0  0  0  0  0
   42.9297  -20.1150   38.7350 N   0  0  0  0  0  0  0  0  0  0  0  0
   43.5487  -18.7924   38.9017 C   0  0  0  0  0  0  0  0  0  0  0  0
   43.4145  -18.6329   40.4146 C   0  0  0  0  0  0  0  0  0  0  0  0
   42.0237  -19.2079   40.6464 C   0  0  0  0  0  0  0  0  0  0  0  0
   41.6188  -19.8553   39.3281 C   0  0  0  0  0  0  0  0  0  0  0  0
 17 18  1  0  0  0
 18  1  1  0  0  0
  1  2  2  0  0  0
  2  3  1  0  0  0
  3  4  2  0  0  0
  4 19  1  0  0  0
 19 21  1  0  0  0
 21 22  1  0  0  0
 22 23  1  0  0  0
 23 24  1  0  0  0
 24 25  1  0  0  0
 24 26  1  0  0  0
 26 27  1  0  0  0
  4  5  1  0  0  0
  5  6  2  0  0  0
  6  7  1  0  0  0
  7  8  2  0  0  0
  8  9  1  0  0  0
  9 10  2  0  0  0
 10 28  1  0  0  0
 28 29  1  0  0  0
 29 30  1  0  0  0
 30 31  1  0  0  0
 31 32  1  0  0  0
 32 33  1  0  0  0
 33 34  1  0  0  0
 34 35  1  0  0  0
 35 36  1  0  0  0
  6 11  1  0  0  0
 11 12  1  0  0  0
 12 13  1  0  0  0
 13 14  1  0  0  0
 14 15  1  0  0  0
 15 16  1  0  0  0
 10  1  1  0  0  0
 36 32  1  0  0  0
 16 11  1  0  0  0
  8  3  1  0  0  0
 27 21  1  0  0  0
 19 20  1  0  0  0
M  END
> <minimizedAffinity>
-6.24206

> <CNNscore>
0.3201348186

> <CNNaffinity>
5.9577255249

> <CNN_VS>
1.9072754383

> <CNNaffinity_variance>
0.1601474583

$$$$
[H]c1c(C2([H])C([H])([H])C([H])([H])OC([H])([H])C2([H])[H])nc2c([H])c(OC([H])([H])C([H])([H])C([H])([H])N3C([H])([H])C([H])([H])C([H])([H])C3([H])[H])c(OC([H])([H])[H])c([H])c2c1N([H])C1([H])C([H])([H])C([H])([H])N(C([H])([H])[H])C([H])([H])C1([H])[H]


 36 40  0  0  0  0  0  0  0  0999 V2000
   37.1360  -19.9999   36.2879 C   0  0  0  0  0  0  0  0  0  0  0  0
   35.8313  -19.6899   35.8920 C   0  0  0  0  0  0  0  0  0  0  0  0
   35.3295  -18.4154   35.8584 C   0  0  0  0  0  0  0  0  0  0  0  0
   34.0450  -18.1285   35.4660 C   0  0  0  0  0  0  0  0  0  0  0  0
   33.6582  -16.7897   35.4757 C   0  0  0  0  0  0  0  0  0  0  0  0
   34.4860  -15.7635   35.8520 C   0  0  0  0  0  0  0  0  0  0  0  0
   35.7303  -16.1017   36.2259 N   0  0  0  0  0  0  0  0  0  0  0  0
   36.1834  -17.3704   36.2454 C   0  0  0  0  0  0  0  0  0  0  0  0
   37.4692  -17.6807   36.6350 C   0  0  0  0  0  0  0  0  0  0  0  0
   37.9546  -18.9674   36.6623 C   0  0  0  0  0  0  0  0  0  0  0  0
   34.1044  -14.3512   35.8735 C   0  0  0  0  0  0  0  0  0  0  0  0
   33.3473  -14.1152   37.1869 C   0  0  0  0  0  0  0  0  0  0  0  0
   33.1313  -12.6278   37.3084 C   0  0  0  0  0  0  0  0  0  0  0  0
   34.3089  -11.9413   37.4724 O   0  0  0  0  0  0  0  0  0  0  0  0
   35.4330  -12.6796   37.1618 C   0  0  0  0  0  0  0  0  0  0  0  0
   35.2291  -13.3831   35.8222 C   0  0  0  0  0  0  0  0  0  0  0  0
   37.3853  -22.2412   37.2910 C   0  0  0  0  0  0  0  0  0  0  0  0
   37.5993  -21.2784   36.3085 O   0  0  0  0  0  0  0  0  0  0  0  0
   33.1658  -19.1537   35.0915 N   0  0  0  0  0  0  0  0  0  0  0  0
   33.2841  -19.6509   34.1903 H   0  0  0  0  0  0  0  0  0  0  0  0
   32.0485  -19.5977   35.9095 C   0  0  0  0  0  0  0  0  0  0  0  0
   32.4223  -20.9296   36.5757 C   0  0  0  0  0  0  0  0  0  0  0  0
   32.3015  -22.0575   35.5891 C   0  0  0  0  0  0  0  0  0  0  0  0
   30.9480  -22.2731   35.1514 N   0  0  0  0  0  0  0  0  0  0  0  0
   30.4483  -23.4859   35.7508 C   0  0  0  0  0  0  0  0  0  0  0  0
   30.1496  -21.1591   35.5591 C   0  0  0  0  0  0  0  0  0  0  0  0
   30.7979  -19.8524   35.0860 C   0  0  0  0  0  0  0  0  0  0  0  0
   39.2775  -19.2375   37.0686 O   0  0  0  0  0  0  0  0  0  0  0  0
   40.3776  -19.0269   36.2409 C   0  0  0  0  0  0  0  0  0  0  0  0
   41.0588  -20.3638   36.0291 C   0  0  0  0  0  0  0  0  0  0  0  0
   40.9255  -20.7127   34.5594 C   0  0  0  0  0  0  0  0  0  0  0  0
   42.0554  -21.5192   34.1480 N   0  0  0  0  0  0  0  0  0  0  0  0
   42.2503  -22.6655   35.0470 C   0  0  0  0  0  0  0  0  0  0  0  0
   43.3314  -23.4188   34.2749 C   0  0  0  0  0  0  0  0  0  0  0  0
   42.8430  -23.2439   32.8433 C   0  0  0  0  0  0  0  0  0  0  0  0
   41.7136  -22.2237   32.9132 C   0  0  0  0  0  0  0  0  0  0  0  0
 17 18  1  0  0  0
 18  1  1  0  0  0
  1  2  2  0  0  0
  2  3  1  0  0  0
  3  4  2  0  0  0
  4 19  1  0  0  0
 19 21  1  0  0  0
 21 22  1  0  0  0
 22 23  1  0  0  0
 23 24  1  0  0  0
 24 25  1  0  0  0
 24 26  1  0  0  0
 26 27  1  0  0  0
  4  5  1  0  0  0
  5  6  2  0  0  0
  6  7  1  0  0  0
  7  8  2  0  0  0
  8  9  1  0  0  0
  9 10  2  0  0  0
 10 28  1  0  0  0
 28 29  1  0  0  0
 29 30  1  0  0  0
 30 31  1  0  0  0
 31 32  1  0  0  0
 32 33  1  0  0  0
 33 34  1  0  0  0
 34 35  1  0  0  0
 35 36  1  0  0  0
  6 11  1  0  0  0
 11 12  1  0  0  0
 12 13  1  0  0  0
 13 14  1  0  0  0
 14 15  1  0  0  0
 15 16  1  0  0  0
 10  1  1  0  0  0
 36 32  1  0  0  0
 16 11  1  0  0  0
  8  3  1  0  0  0
 27 21  1  0  0  0
 19 20  1  0  0  0
M  END
> <minimizedAffinity>
-6.08030

> <CNNscore>
0.3011722267

> <CNNaffinity>
5.7083382607

> <CNN_VS>
1.7191929817

> <CNNaffinity_variance>
0.2993136048

$$$$
[H]c1c(C2([H])C([H])([H])C([H])([H])OC([H])([H])C2([H])[H])nc2c([H])c(OC([H])([H])C([H])([H])C([H])([H])N3C([H])([H])C([H])([H])C([H])([H])C3([H])[H])c(OC([H])([H])[H])c([H])c2c1N([H])C1([H])C([H])([H])C([H])([H])N(C([H])([H])[H])C([H])([H])C1([H])[H]


 36 40  0  0  0  0  0  0  0  0999 V2000
   38.2398  -20.7260   36.3893 C   0  0  0  0  0  0  0  0  0  0  0  0
   37.0117  -20.4071   35.8018 C   0  0  0  0  0  0  0  0  0  0  0  0
   36.5132  -19.1331   35.7257 C   0  0  0  0  0  0  0  0  0  0  0  0
   35.3046  -18.8374   35.1441 C   0  0  0  0  0  0  0  0  0  0  0  0
   34.9125  -17.5002   35.1307 C   0  0  0  0  0  0  0  0  0  0  0  0
   35.6642  -16.4838   35.6616 C   0  0  0  0  0  0  0  0  0  0  0  0
   36.8362  -16.8303   36.2171 N   0  0  0  0  0  0  0  0  0  0  0  0
   37.2888  -18.0982   36.2718 C   0  0  0  0  0  0  0  0  0  0  0  0
   38.4992  -18.4172   36.8502 C   0  0  0  0  0  0  0  0  0  0  0  0
   38.9825  -19.7032   36.9171 C   0  0  0  0  0  0  0  0  0  0  0  0
   35.2748  -15.0735   35.6627 C   0  0  0  0  0  0  0  0  0  0  0  0
   33.9256  -14.9853   36.3878 C   0  0  0  0  0  0  0  0  0  0  0  0
   33.6200  -13.5201   36.5707 C   0  0  0  0  0  0  0  0  0  0  0  0
   34.5009  -12.9063   37.4263 O   0  0  0  0  0  0  0  0  0  0  0  0
   35.6455  -13.6386   37.6685 C   0  0  0  0  0  0  0  0  0  0  0  0
   36.2148  -14.1502   36.3475 C   0  0  0  0  0  0  0  0  0  0  0  0
   38.2656  -23.0259   37.2844 C   0  0  0  0  0  0  0  0  0  0  0  0
   38.7023  -22.0037   36.4464 O   0  0  0  0  0  0  0  0  0  0  0  0
   34.5020  -19.8530   34.6068 N   0  0  0  0  0  0  0  0  0  0  0  0
   34.8756  -20.5005   33.8895 H   0  0  0  0  0  0  0  0  0  0  0  0
   33.1204  -20.0820   34.9984 C   0  0  0  0  0  0  0  0  0  0  0  0
   33.0951  -20.5912   36.4466 C   0  0  0  0  0  0  0  0  0  0  0  0
   33.4736  -22.0453   36.4944 C   0  0  0  0  0  0  0  0  0  0  0  0
   32.5203  -22.8919   35.8276 N   0  0  0  0  0  0  0  0  0  0  0  0
   31.7742  -23.6292   36.8174 C   0  0  0  0  0  0  0  0  0  0  0  0
   31.6371  -22.0727   35.0571 C   0  0  0  0  0  0  0  0  0  0  0  0
   32.4494  -21.1448   34.1456 C   0  0  0  0  0  0  0  0  0  0  0  0
   40.2267  -19.9824   37.5189 O   0  0  0  0  0  0  0  0  0  0  0  0
   41.2514  -19.0429   37.6015 C   0  0  0  0  0  0  0  0  0  0  0  0
   42.3623  -19.4882   36.6721 C   0  0  0  0  0  0  0  0  0  0  0  0
   42.3953  -18.5177   35.5073 C   0  0  0  0  0  0  0  0  0  0  0  0
   42.0932  -19.2232   34.2796 N   0  0  0  0  0  0  0  0  0  0  0  0
   41.9032  -20.6604   34.5211 C   0  0  0  0  0  0  0  0  0  0  0  0
   41.4087  -21.0913   33.1419 C   0  0  0  0  0  0  0  0  0  0  0  0
   40.4922  -19.9290   32.7843 C   0  0  0  0  0  0  0  0  0  0  0  0
   40.7458  -18.8618   33.8416 C   0  0  0  0  0  0  0  0  0  0  0  0
 17 18  1  0  0  0
 18  1  1  0  0  0
  1  2  2  0  0  0
  2  3  1  0  0  0
  3  4  2  0  0  0
  4 19  1  0  0  0
 19 21  1  0  0  0
 21 22  1  0  0  0
 22 23  1  0  0  0
 23 24  1  0  0  0
 24 25  1  0  0  0
 24 26  1  0  0  0
 26 27  1  0  0  0
  4  5  1  0  0  0
  5  6  2  0  0  0
  6  7  1  0  0  0
  7  8  2  0  0  0
  8  9  1  0  0  0
  9 10  2  0  0  0
 10 28  1  0  0  0
 28 29  1  0  0  0
 29 30  1  0  0  0
 30 31  1  0  0  0
 31 32  1  0  0  0
 32 33  1  0  0  0
 33 34  1  0  0  0
 34 35  1  0  0  0
 35 36  1  0  0  0
  6 11  1  0  0  0
 11 12  1  0  0  0
 12 13  1  0  0  0
 13 14  1  0  0  0
 14 15  1  0  0  0
 15 16  1  0  0  0
 10  1  1  0  0  0
 36 32  1  0  0  0
 16 11  1  0  0  0
  8  3  1  0  0  0
 27 21  1  0  0  0
 19 20  1  0  0  0
M  END
> <minimizedAffinity>
-6.10976

> <CNNscore>
0.2949446738

> <CNNaffinity>
6.0728750229

> <CNN_VS>
1.7911621332

> <CNNaffinity_variance>
0.2404422313

$$$$
[H]c1c(C2([H])C([H])([H])C([H])([H])OC([H])([H])C2([H])[H])nc2c([H])c(OC([H])([H])C([H])([H])C([H])([H])N3C([H])([H])C([H])([H])C([H])([H])C3([H])[H])c(OC([H])([H])[H])c([H])c2c1N([H])C1([H])C([H])([H])C([H])([H])N(C([H])([H])[H])C([H])([H])C1([H])[H]


 36 40  0  0  0  0  0  0  0  0999 V2000
   34.1465  -18.1904   35.9128 C   0  0  0  0  0  0  0  0  0  0  0  0
   34.8892  -19.3430   36.1867 C   0  0  0  0  0  0  0  0  0  0  0  0
   36.2453  -19.3450   36.3827 C   0  0  0  0  0  0  0  0  0  0  0  0
   36.9595  -20.4869   36.6516 C   0  0  0  0  0  0  0  0  0  0  0  0
   38.3349  -20.3524   36.8316 C   0  0  0  0  0  0  0  0  0  0  0  0
   38.9966  -19.1540   36.7542 C   0  0  0  0  0  0  0  0  0  0  0  0
   38.2489  -18.0709   36.4890 N   0  0  0  0  0  0  0  0  0  0  0  0
   36.9153  -18.1139   36.3016 C   0  0  0  0  0  0  0  0  0  0  0  0
   36.1789  -16.9799   36.0314 C   0  0  0  0  0  0  0  0  0  0  0  0
   34.8173  -16.9986   35.8373 C   0  0  0  0  0  0  0  0  0  0  0  0
   40.4385  -18.9859   36.9365 C   0  0  0  0  0  0  0  0  0  0  0  0
   40.9057  -20.1218   37.8560 C   0  0  0  0  0  0  0  0  0  0  0  0
   42.4126  -20.0742   37.8823 C   0  0  0  0  0  0  0  0  0  0  0  0
   42.9655  -20.3807   36.6636 O   0  0  0  0  0  0  0  0  0  0  0  0
   42.0676  -20.3359   35.6164 C   0  0  0  0  0  0  0  0  0  0  0  0
   41.2522  -19.0475   35.6961 C   0  0  0  0  0  0  0  0  0  0  0  0
   32.1018  -18.9214   34.7396 C   0  0  0  0  0  0  0  0  0  0  0  0
   32.8002  -18.2276   35.7240 O   0  0  0  0  0  0  0  0  0  0  0  0
   36.3188  -21.7314   36.7208 N   0  0  0  0  0  0  0  0  0  0  0  0
   35.9405  -22.1813   35.8676 H   0  0  0  0  0  0  0  0  0  0  0  0
   36.1373  -22.4782   37.9553 C   0  0  0  0  0  0  0  0  0  0  0  0
   34.6452  -22.4796   38.3173 C   0  0  0  0  0  0  0  0  0  0  0  0
   34.2541  -21.1590   38.9199 C   0  0  0  0  0  0  0  0  0  0  0  0
   34.9016  -20.9073   40.1798 N   0  0  0  0  0  0  0  0  0  0  0  0
   33.9340  -21.0441   41.2405 C   0  0  0  0  0  0  0  0  0  0  0  0
   35.9568  -21.8568   40.3527 C   0  0  0  0  0  0  0  0  0  0  0  0
   36.8738  -21.8462   39.1236 C   0  0  0  0  0  0  0  0  0  0  0  0
   34.1053  -15.8129   35.5628 O   0  0  0  0  0  0  0  0  0  0  0  0
   33.8326  -14.8553   36.5365 C   0  0  0  0  0  0  0  0  0  0  0  0
   33.9289  -13.4916   35.8829 C   0  0  0  0  0  0  0  0  0  0  0  0
   34.4853  -12.5317   36.9167 C   0  0  0  0  0  0  0  0  0  0  0  0
   34.1980  -11.1697   36.5180 N   0  0  0  0  0  0  0  0  0  0  0  0
   33.8675  -10.3308   37.6786 C   0  0  0  0  0  0  0  0  0  0  0  0
   33.8231   -8.9615   37.0036 C   0  0  0  0  0  0  0  0  0  0  0  0
   35.0080   -9.0662   36.0530 C   0  0  0  0  0  0  0  0  0  0  0  0
   35.4391  -10.5271   36.0887 C   0  0  0  0  0  0  0  0  0  0  0  0
 17 18  1  0  0  0
 18  1  1  0  0  0
  1  2  2  0  0  0
  2  3  1  0  0  0
  3  4  2  0  0  0
  4 19  1  0  0  0
 19 21  1  0  0  0
 21 22  1  0  0  0
 22 23  1  0  0  0
 23 24  1  0  0  0
 24 25  1  0  0  0
 24 26  1  0  0  0
 26 27  1  0  0  0
  4  5  1  0  0  0
  5  6  2  0  0  0
  6  7  1  0  0  0
  7  8  2  0  0  0
  8  9  1  0  0  0
  9 10  2  0  0  0
 10 28  1  0  0  0
 28 29  1  0  0  0
 29 30  1  0  0  0
 30 31  1  0  0  0
 31 32  1  0  0  0
 32 33  1  0  0  0
 33 34  1  0  0  0
 34 35  1  0  0  0
 35 36  1  0  0  0
  6 11  1  0  0  0
 11 12  1  0  0  0
 12 13  1  0  0  0
 13 14  1  0  0  0
 14 15  1  0  0  0
 15 16  1  0  0  0
 10  1  1  0  0  0
 36 32  1  0  0  0
 16 11  1  0  0  0
  8  3  1  0  0  0
 27 21  1  0  0  0
 19 20  1  0  0  0
M  END
> <minimizedAffinity>
-5.45142

> <CNNscore>
0.2776485682

> <CNNaffinity>
5.9672970772

> <CNN_VS>
1.6568114758

> <CNNaffinity_variance>
0.0570777953

$$$$
[H]c1c(OC([H])([H])C([H])([H])C([H])([H])N2C([H])([H])C([H])([H])C([H])([H])C([H])([H])C2([H])[H])c(OC([H])([H])[H])c([H])c2c(N([H])C3([H])C([H])([H])C([H])([H])N(C([H])([H])C4([H])C([H])([H])C([H])([H])C([H])([H])C([H])([H])C4([H])[H])C([H])([H])C3([H])[H])nc(N3C([H])([H])C([H])([H])N(C([H])(C([H])([H])[H])C([H])([H])[H])C([H])([H])C([H])([H])C3([H])[H])nc12


 47 52  0  0  0  0  0  0  0  0999 V2000
   35.9142  -14.1841   36.3985 C   0  0  0  0  0  0  0  0  0  0  0  0
   36.4857  -15.3875   36.0821 C   0  0  0  0  0  0  0  0  0  0  0  0
   35.7286  -16.5069   35.8286 C   0  0  0  0  0  0  0  0  0  0  0  0
   36.2406  -17.7378   35.5024 C   0  0  0  0  0  0  0  0  0  0  0  0
   35.4085  -18.7690   35.2660 N   0  0  0  0  0  0  0  0  0  0  0  0
   34.0712  -18.6716   35.3305 C   0  0  0  0  0  0  0  0  0  0  0  0
   33.5779  -17.4630   35.6518 N   0  0  0  0  0  0  0  0  0  0  0  0
   34.3352  -16.3832   35.9026 C   0  0  0  0  0  0  0  0  0  0  0  0
   33.7930  -15.1539   36.2253 C   0  0  0  0  0  0  0  0  0  0  0  0
   34.5218  -14.0181   36.4846 C   0  0  0  0  0  0  0  0  0  0  0  0
   33.1907  -19.7857   35.0759 N   0  0  0  0  0  0  0  0  0  0  0  0
   32.2063  -19.6034   34.0281 C   0  0  0  0  0  0  0  0  0  0  0  0
   30.9043  -19.2028   34.6889 C   0  0  0  0  0  0  0  0  0  0  0  0
   30.4924  -20.3410   35.6025 C   0  0  0  0  0  0  0  0  0  0  0  0
   31.1459  -21.5284   35.1803 N   0  0  0  0  0  0  0  0  0  0  0  0
   32.3114  -21.9049   35.9107 C   0  0  0  0  0  0  0  0  0  0  0  0
   33.4294  -20.9228   35.9182 C   0  0  0  0  0  0  0  0  0  0  0  0
   30.2979  -22.6482   34.8952 C   0  0  0  0  0  0  0  0  0  0  0  0
   30.9103  -23.9804   35.2202 C   0  0  0  0  0  0  0  0  0  0  0  0
   28.9950  -22.4673   35.6448 C   0  0  0  0  0  0  0  0  0  0  0  0
   37.8731  -13.1988   37.4211 C   0  0  0  0  0  0  0  0  0  0  0  0
   36.6981  -13.0674   36.6497 O   0  0  0  0  0  0  0  0  0  0  0  0
   37.6400  -17.9265   35.4308 N   0  0  0  0  0  0  0  0  0  0  0  0
   38.1762  -17.2206   34.8250 H   0  0  0  0  0  0  0  0  0  0  0  0
   38.4098  -18.9395   36.0677 C   0  0  0  0  0  0  0  0  0  0  0  0
   37.7103  -19.7105   37.1703 C   0  0  0  0  0  0  0  0  0  0  0  0
   38.7317  -20.5766   37.9001 C   0  0  0  0  0  0  0  0  0  0  0  0
   40.0534  -20.2254   37.2975 N   0  0  0  0  0  0  0  0  0  0  0  0
   39.9765  -20.8083   35.9926 C   0  0  0  0  0  0  0  0  0  0  0  0
   39.1369  -19.8372   35.1257 C   0  0  0  0  0  0  0  0  0  0  0  0
   41.0756  -20.6569   38.1744 C   0  0  0  0  0  0  0  0  0  0  0  0
   41.5170  -19.7528   39.2686 C   0  0  0  0  0  0  0  0  0  0  0  0
   42.9211  -19.3232   39.1752 C   0  0  0  0  0  0  0  0  0  0  0  0
   43.3833  -18.5608   40.4192 C   0  0  0  0  0  0  0  0  0  0  0  0
   42.9586  -19.1924   41.7001 C   0  0  0  0  0  0  0  0  0  0  0  0
   41.4842  -19.4545   41.6967 C   0  0  0  0  0  0  0  0  0  0  0  0
   41.2014  -20.4653   40.5821 C   0  0  0  0  0  0  0  0  0  0  0  0
   34.0297  -12.7883   36.8111 O   0  0  0  0  0  0  0  0  0  0  0  0
   33.6336  -12.1997   37.9698 C   0  0  0  0  0  0  0  0  0  0  0  0
   32.2132  -12.4536   38.4050 C   0  0  0  0  0  0  0  0  0  0  0  0
   31.3380  -12.1326   37.1879 C   0  0  0  0  0  0  0  0  0  0  0  0
   29.9783  -12.0218   37.6240 N   0  0  0  0  0  0  0  0  0  0  0  0
   29.7932  -12.4616   38.9684 C   0  0  0  0  0  0  0  0  0  0  0  0
   28.4599  -12.0763   39.5673 C   0  0  0  0  0  0  0  0  0  0  0  0
   28.1528  -10.6123   39.3939 C   0  0  0  0  0  0  0  0  0  0  0  0
   29.3488   -9.9612   38.7433 C   0  0  0  0  0  0  0  0  0  0  0  0
   29.5567  -10.6538   37.4139 C   0  0  0  0  0  0  0  0  0  0  0  0
 21 22  1  0  0  0
 22  1  1  0  0  0
  1  2  2  0  0  0
  2  3  1  0  0  0
  3  4  2  0  0  0
  4 23  1  0  0  0
 23 25  1  0  0  0
 25 26  1  0  0  0
 26 27  1  0  0  0
 27 28  1  0  0  0
 28 31  1  0  0  0
 31 32  1  0  0  0
 32 33  1  0  0  0
 33 34  1  0  0  0
 34 35  1  0  0  0
 35 36  1  0  0  0
 36 37  1  0  0  0
 28 29  1  0  0  0
 29 30  1  0  0  0
  4  5  1  0  0  0
  5  6  2  0  0  0
  6  7  1  0  0  0
  7  8  2  0  0  0
  8  9  1  0  0  0
  9 10  2  0  0  0
 10 38  1  0  0  0
 38 39  1  0  0  0
 39 40  1  0  0  0
 40 41  1  0  0  0
 41 42  1  0  0  0
 42 43  1  0  0  0
 43 44  1  0  0  0
 44 45  1  0  0  0
 45 46  1  0  0  0
 46 47  1  0  0  0
  6 11  1  0  0  0
 11 12  1  0  0  0
 12 13  1  0  0  0
 13 14  1  0  0  0
 14 15  1  0  0  0
 15 16  1  0  0  0
 16 17  1  0  0  0
 15 18  1  0  0  0
 18 19  1  0  0  0
 18 20  1  0  0  0
 10  1  1  0  0  0
 47 42  1  0  0  0
 17 11  1  0  0  0
  8  3  1  0  0  0
 30 25  1  0  0  0
 37 32  1  0  0  0
 23 24  1  0  0  0
M  END
> <minimizedAffinity>
-9.01881

> <CNNscore>
0.5180762410

> <CNNaffinity>
7.4374933243

> <CNN_VS>
3.8531885147

> <CNNaffinity_variance>
0.2263820469

$$$$
[H]c1c(OC([H])([H])C([H])([H])C([H])([H])N2C([H])([H])C([H])([H])C([H])([H])C([H])([H])C2([H])[H])c(OC([H])([H])[H])c([H])c2c(N([H])C3([H])C([H])([H])C([H])([H])N(C([H])([H])C4([H])C([H])([H])C([H])([H])C([H])([H])C([H])([H])C4([H])[H])C([H])([H])C3([H])[H])nc(N3C([H])([H])C([H])([H])N(C([H])(C([H])([H])[H])C([H])([H])[H])C([H])([H])C([H])([H])C3([H])[H])nc12


 47 52  0  0  0  0  0  0  0  0999 V2000
   36.0541  -14.5279   36.7027 C   0  0  0  0  0  0  0  0  0  0  0  0
   36.5436  -15.8060   36.7462 C   0  0  0  0  0  0  0  0  0  0  0  0
   35.7503  -16.8970   36.4806 C   0  0  0  0  0  0  0  0  0  0  0  0
   36.1818  -18.1997   36.5033 C   0  0  0  0  0  0  0  0  0  0  0  0
   35.3222  -19.1960   36.2198 N   0  0  0  0  0  0  0  0  0  0  0  0
   34.0322  -18.9950   35.9078 C   0  0  0  0  0  0  0  0  0  0  0  0
   33.6172  -17.7165   35.8889 N   0  0  0  0  0  0  0  0  0  0  0  0
   34.4069  -16.6647   36.1584 C   0  0  0  0  0  0  0  0  0  0  0  0
   33.9470  -15.3621   36.1246 C   0  0  0  0  0  0  0  0  0  0  0  0
   34.7137  -14.2518   36.3855 C   0  0  0  0  0  0  0  0  0  0  0  0
   33.1212  -20.0725   35.6072 N   0  0  0  0  0  0  0  0  0  0  0  0
   32.5112  -20.0536   34.2929 C   0  0  0  0  0  0  0  0  0  0  0  0
   31.1400  -19.4273   34.4343 C   0  0  0  0  0  0  0  0  0  0  0  0
   30.3361  -20.3069   35.3724 C   0  0  0  0  0  0  0  0  0  0  0  0
   30.9189  -21.6010   35.4009 N   0  0  0  0  0  0  0  0  0  0  0  0
   31.7657  -21.8909   36.5111 C   0  0  0  0  0  0  0  0  0  0  0  0
   32.9552  -21.0126   36.6787 C   0  0  0  0  0  0  0  0  0  0  0  0
   30.0466  -22.6930   35.0830 C   0  0  0  0  0  0  0  0  0  0  0  0
   30.5680  -24.0374   35.5028 C   0  0  0  0  0  0  0  0  0  0  0  0
   28.6959  -22.4282   35.7136 C   0  0  0  0  0  0  0  0  0  0  0  0
   38.0846  -13.6382   37.6720 C   0  0  0  0  0  0  0  0  0  0  0  0
   36.8735  -13.4417   36.9737 O   0  0  0  0  0  0  0  0  0  0  0  0
   37.5228  -18.4959   36.8397 N   0  0  0  0  0  0  0  0  0  0  0  0
   37.7580  -18.4716   37.8869 H   0  0  0  0  0  0  0  0  0  0  0  0
   38.5859  -18.8202   35.9513 C   0  0  0  0  0  0  0  0  0  0  0  0
   39.2111  -20.1893   36.1357 C   0  0  0  0  0  0  0  0  0  0  0  0
   40.4713  -20.2825   35.2818 C   0  0  0  0  0  0  0  0  0  0  0  0
   40.6476  -18.9241   34.6842 N   0  0  0  0  0  0  0  0  0  0  0  0
   39.5864  -18.8543   33.7264 C   0  0  0  0  0  0  0  0  0  0  0  0
   38.2989  -18.5194   34.5198 C   0  0  0  0  0  0  0  0  0  0  0  0
   41.9813  -18.8033   34.2294 C   0  0  0  0  0  0  0  0  0  0  0  0
   43.0221  -18.3096   35.1688 C   0  0  0  0  0  0  0  0  0  0  0  0
   42.5165  -17.4194   36.2255 C   0  0  0  0  0  0  0  0  0  0  0  0
   43.6433  -16.7825   37.0423 C   0  0  0  0  0  0  0  0  0  0  0  0
   44.7669  -16.2665   36.2109 C   0  0  0  0  0  0  0  0  0  0  0  0
   45.2592  -17.3246   35.2725 C   0  0  0  0  0  0  0  0  0  0  0  0
   44.1107  -17.6598   34.3172 C   0  0  0  0  0  0  0  0  0  0  0  0
   34.3010  -12.9516   36.3687 O   0  0  0  0  0  0  0  0  0  0  0  0
   33.8992  -12.0691   37.3205 C   0  0  0  0  0  0  0  0  0  0  0  0
   32.6091  -12.3850   38.0326 C   0  0  0  0  0  0  0  0  0  0  0  0
   31.5765  -11.3898   37.4907 C   0  0  0  0  0  0  0  0  0  0  0  0
   30.2689  -11.9378   37.6936 N   0  0  0  0  0  0  0  0  0  0  0  0
   30.1328  -12.5852   38.9575 C   0  0  0  0  0  0  0  0  0  0  0  0
   28.7047  -12.8983   39.3416 C   0  0  0  0  0  0  0  0  0  0  0  0
   27.7976  -11.7040   39.2066 C   0  0  0  0  0  0  0  0  0  0  0  0
   28.6452  -10.5198   38.8106 C   0  0  0  0  0  0  0  0  0  0  0  0
   29.3082  -10.8740   37.4972 C   0  0  0  0  0  0  0  0  0  0  0  0
 21 22  1  0  0  0
 22  1  1  0  0  0
  1  2  2  0  0  0
  2  3  1  0  0  0
  3  4  2  0  0  0
  4 23  1  0  0  0
 23 25  1  0  0  0
 25 26  1  0  0  0
 26 27  1  0  0  0
 27 28  1  0  0  0
 28 31  1  0  0  0
 31 32  1  0  0  0
 32 33  1  0  0  0
 33 34  1  0  0  0
 34 35  1  0  0  0
 35 36  1  0  0  0
 36 37  1  0  0  0
 28 29  1  0  0  0
 29 30  1  0  0  0
  4  5  1  0  0  0
  5  6  2  0  0  0
  6  7  1  0  0  0
  7  8  2  0  0  0
  8  9  1  0  0  0
  9 10  2  0  0  0
 10 38  1  0  0  0
 38 39  1  0  0  0
 39 40  1  0  0  0
 40 41  1  0  0  0
 41 42  1  0  0  0
 42 43  1  0  0  0
 43 44  1  0  0  0
 44 45  1  0  0  0
 45 46  1  0  0  0
 46 47  1  0  0  0
  6 11  1  0  0  0
 11 12  1  0  0  0
 12 13  1  0  0  0
 13 14  1  0  0  0
 14 15  1  0  0  0
 15 16  1  0  0  0
 16 17  1  0  0  0
 15 18  1  0  0  0
 18 19  1  0  0  0
 18 20  1  0  0  0
 10  1  1  0  0  0
 47 42  1  0  0  0
 17 11  1  0  0  0
  8  3  1  0  0  0
 30 25  1  0  0  0
 37 32  1  0  0  0
 23 24  1  0  0  0
M  END
> <minimizedAffinity>
-9.21708

> <CNNscore>
0.5046883821

> <CNNaffinity>
7.5738868713

> <CNN_VS>
3.8224527836

> <CNNaffinity_variance>
0.1725953072

$$$$
[H]c1c(OC([H])([H])C([H])([H])C([H])([H])N2C([H])([H])C([H])([H])C([H])([H])C([H])([H])C2([H])[H])c(OC([H])([H])[H])c([H])c2c(N([H])C3([H])C([H])([H])C([H])([H])N(C([H])([H])C4([H])C([H])([H])C([H])([H])C([H])([H])C([H])([H])C4([H])[H])C([H])([H])C3([H])[H])nc(N3C([H])([H])C([H])([H])N(C([H])(C([H])([H])[H])C([H])([H])[H])C([H])([H])C([H])([H])C3([H])[H])nc12


 47 52  0  0  0  0  0  0  0  0999 V2000
   35.9826  -14.4229   36.5628 C   0  0  0  0  0  0  0  0  0  0  0  0
   36.6403  -15.6223   36.4980 C   0  0  0  0  0  0  0  0  0  0  0  0
   35.9752  -16.8041   36.2715 C   0  0  0  0  0  0  0  0  0  0  0  0
   36.5767  -18.0351   36.1912 C   0  0  0  0  0  0  0  0  0  0  0  0
   35.8317  -19.1316   35.9581 N   0  0  0  0  0  0  0  0  0  0  0  0
   34.4997  -19.1012   35.7948 C   0  0  0  0  0  0  0  0  0  0  0  0
   33.9181  -17.8920   35.8762 N   0  0  0  0  0  0  0  0  0  0  0  0
   34.5853  -16.7497   36.1052 C   0  0  0  0  0  0  0  0  0  0  0  0
   33.9545  -15.5224   36.1775 C   0  0  0  0  0  0  0  0  0  0  0  0
   34.5903  -14.3251   36.4030 C   0  0  0  0  0  0  0  0  0  0  0  0
   33.7130  -20.2848   35.5468 N   0  0  0  0  0  0  0  0  0  0  0  0
   32.9135  -20.2863   34.3381 C   0  0  0  0  0  0  0  0  0  0  0  0
   31.5059  -19.8801   34.7207 C   0  0  0  0  0  0  0  0  0  0  0  0
   30.9849  -20.9193   35.6947 C   0  0  0  0  0  0  0  0  0  0  0  0
   31.7401  -22.1116   35.5419 N   0  0  0  0  0  0  0  0  0  0  0  0
   32.7781  -22.3313   36.4948 C   0  0  0  0  0  0  0  0  0  0  0  0
   33.8449  -21.2957   36.5568 C   0  0  0  0  0  0  0  0  0  0  0  0
   30.9908  -23.3027   35.2701 C   0  0  0  0  0  0  0  0  0  0  0  0
   29.5028  -23.1300   35.3781 C   0  0  0  0  0  0  0  0  0  0  0  0
   31.3671  -23.8029   33.8915 C   0  0  0  0  0  0  0  0  0  0  0  0
   37.8812  -13.2718   37.5238 C   0  0  0  0  0  0  0  0  0  0  0  0
   36.6745  -13.2426   36.7916 O   0  0  0  0  0  0  0  0  0  0  0  0
   37.9744  -18.1533   36.3691 N   0  0  0  0  0  0  0  0  0  0  0  0
   38.4696  -17.2879   36.7672 H   0  0  0  0  0  0  0  0  0  0  0  0
   38.7902  -19.2831   36.0817 C   0  0  0  0  0  0  0  0  0  0  0  0
   40.1830  -18.9818   35.5632 C   0  0  0  0  0  0  0  0  0  0  0  0
   40.8288  -20.2774   35.0832 C   0  0  0  0  0  0  0  0  0  0  0  0
   39.7685  -21.3223   35.2148 N   0  0  0  0  0  0  0  0  0  0  0  0
   39.6614  -21.4946   36.6316 C   0  0  0  0  0  0  0  0  0  0  0  0
   38.7993  -20.3185   37.1539 C   0  0  0  0  0  0  0  0  0  0  0  0
   40.1335  -22.4348   34.4214 C   0  0  0  0  0  0  0  0  0  0  0  0
   41.1653  -23.3762   34.9298 C   0  0  0  0  0  0  0  0  0  0  0  0
   42.3806  -23.4524   34.1041 C   0  0  0  0  0  0  0  0  0  0  0  0
   43.3235  -24.5713   34.5530 C   0  0  0  0  0  0  0  0  0  0  0  0
   42.6295  -25.8568   34.8459 C   0  0  0  0  0  0  0  0  0  0  0  0
   41.4945  -25.6397   35.7983 C   0  0  0  0  0  0  0  0  0  0  0  0
   40.4794  -24.7300   35.1011 C   0  0  0  0  0  0  0  0  0  0  0  0
   34.0083  -13.0940   36.4871 O   0  0  0  0  0  0  0  0  0  0  0  0
   32.8452  -12.6259   37.0107 C   0  0  0  0  0  0  0  0  0  0  0  0
   32.9427  -11.4023   37.8852 C   0  0  0  0  0  0  0  0  0  0  0  0
   34.2283  -10.6838   37.4594 C   0  0  0  0  0  0  0  0  0  0  0  0
   33.9065   -9.7620   36.4116 N   0  0  0  0  0  0  0  0  0  0  0  0
   33.2022   -8.6149   36.8839 C   0  0  0  0  0  0  0  0  0  0  0  0
   33.1190   -7.4848   35.8833 C   0  0  0  0  0  0  0  0  0  0  0  0
   34.4615   -7.1346   35.2981 C   0  0  0  0  0  0  0  0  0  0  0  0
   35.5031   -7.9831   35.9855 C   0  0  0  0  0  0  0  0  0  0  0  0
   35.1349   -9.4276   35.7242 C   0  0  0  0  0  0  0  0  0  0  0  0
 21 22  1  0  0  0
 22  1  1  0  0  0
  1  2  2  0  0  0
  2  3  1  0  0  0
  3  4  2  0  0  0
  4 23  1  0  0  0
 23 25  1  0  0  0
 25 26  1  0  0  0
 26 27  1  0  0  0
 27 28  1  0  0  0
 28 31  1  0  0  0
 31 32  1  0  0  0
 32 33  1  0  0  0
 33 34  1  0  0  0
 34 35  1  0  0  0
 35 36  1  0  0  0
 36 37  1  0  0  0
 28 29  1  0  0  0
 29 30  1  0  0  0
  4  5  1  0  0  0
  5  6  2  0  0  0
  6  7  1  0  0  0
  7  8  2  0  0  0
  8  9  1  0  0  0
  9 10  2  0  0  0
 10 38  1  0  0  0
 38 39  1  0  0  0
 39 40  1  0  0  0
 40 41  1  0  0  0
 41 42  1  0  0  0
 42 43  1  0  0  0
 43 44  1  0  0  0
 44 45  1  0  0  0
 45 46  1  0  0  0
 46 47  1  0  0  0
  6 11  1  0  0  0
 11 12  1  0  0  0
 12 13  1  0  0  0
 13 14  1  0  0  0
 14 15  1  0  0  0
 15 16  1  0  0  0
 16 17  1  0  0  0
 15 18  1  0  0  0
 18 19  1  0  0  0
 18 20  1  0  0  0
 10  1  1  0  0  0
 47 42  1  0  0  0
 17 11  1  0  0  0
  8  3  1  0  0  0
 30 25  1  0  0  0
 37 32  1  0  0  0
 23 24  1  0  0  0
M  END
> <minimizedAffinity>
-7.22865

> <CNNscore>
0.3857674301

> <CNNaffinity>
7.2382440567

> <CNN_VS>
2.7922787666

> <CNNaffinity_variance>
0.1102895290

$$$$
[H]c1c(OC([H])([H])C([H])([H])C([H])([H])N2C([H])([H])C([H])([H])C([H])([H])C([H])([H])C2([H])[H])c(OC([H])([H])[H])c([H])c2c(N([H])C3([H])C([H])([H])C([H])([H])N(C([H])([H])C4([H])C([H])([H])C([H])([H])C([H])([H])C([H])([H])C4([H])[H])C([H])([H])C3([H])[H])nc(N3C([H])([H])C([H])([H])N(C([H])(C([H])([H])[H])C([H])([H])[H])C([H])([H])C([H])([H])C3([H])[H])nc12


 47 52  0  0  0  0  0  0  0  0999 V2000
   35.9841  -14.8504   36.4986 C   0  0  0  0  0  0  0  0  0  0  0  0
   36.6059  -16.0700   36.5276 C   0  0  0  0  0  0  0  0  0  0  0  0
   35.9212  -17.2402   36.2991 C   0  0  0  0  0  0  0  0  0  0  0  0
   36.4872  -18.4904   36.3097 C   0  0  0  0  0  0  0  0  0  0  0  0
   35.7260  -19.5733   36.0656 N   0  0  0  0  0  0  0  0  0  0  0  0
   34.4105  -19.5107   35.8053 C   0  0  0  0  0  0  0  0  0  0  0  0
   33.8637  -18.2828   35.7980 N   0  0  0  0  0  0  0  0  0  0  0  0
   34.5491  -17.1520   36.0307 C   0  0  0  0  0  0  0  0  0  0  0  0
   33.9544  -15.9049   36.0101 C   0  0  0  0  0  0  0  0  0  0  0  0
   34.6104  -14.7185   36.2350 C   0  0  0  0  0  0  0  0  0  0  0  0
   33.6060  -20.6800   35.5466 N   0  0  0  0  0  0  0  0  0  0  0  0
   32.7710  -20.6392   34.3630 C   0  0  0  0  0  0  0  0  0  0  0  0
   31.3792  -20.2329   34.7993 C   0  0  0  0  0  0  0  0  0  0  0  0
   30.8779  -21.2959   35.7578 C   0  0  0  0  0  0  0  0  0  0  0  0
   31.6173  -22.4894   35.5477 N   0  0  0  0  0  0  0  0  0  0  0  0
   32.6811  -22.7457   36.4622 C   0  0  0  0  0  0  0  0  0  0  0  0
   33.7587  -21.7212   36.5223 C   0  0  0  0  0  0  0  0  0  0  0  0
   30.8492  -23.6658   35.2638 C   0  0  0  0  0  0  0  0  0  0  0  0
   29.3640  -23.4691   35.3674 C   0  0  0  0  0  0  0  0  0  0  0  0
   31.2228  -24.1617   33.8829 C   0  0  0  0  0  0  0  0  0  0  0  0
   37.7938  -13.6993   37.6182 C   0  0  0  0  0  0  0  0  0  0  0  0
   36.6954  -13.6824   36.7315 O   0  0  0  0  0  0  0  0  0  0  0  0
   37.8642  -18.6421   36.5926 N   0  0  0  0  0  0  0  0  0  0  0  0
   38.1804  -18.3134   37.5645 H   0  0  0  0  0  0  0  0  0  0  0  0
   38.8685  -19.1782   35.7391 C   0  0  0  0  0  0  0  0  0  0  0  0
   38.8124  -18.7374   34.2893 C   0  0  0  0  0  0  0  0  0  0  0  0
   39.7912  -19.5758   33.4737 C   0  0  0  0  0  0  0  0  0  0  0  0
   40.3384  -20.5877   34.4277 N   0  0  0  0  0  0  0  0  0  0  0  0
   41.1812  -19.8041   35.2786 C   0  0  0  0  0  0  0  0  0  0  0  0
   40.2484  -19.1042   36.2980 C   0  0  0  0  0  0  0  0  0  0  0  0
   40.9176  -21.6406   33.6820 C   0  0  0  0  0  0  0  0  0  0  0  0
   40.5497  -23.0433   34.0083 C   0  0  0  0  0  0  0  0  0  0  0  0
   41.0390  -24.0416   33.0446 C   0  0  0  0  0  0  0  0  0  0  0  0
   40.4727  -25.4383   33.3112 C   0  0  0  0  0  0  0  0  0  0  0  0
   39.0114  -25.4459   33.6017 C   0  0  0  0  0  0  0  0  0  0  0  0
   38.6839  -24.4713   34.6904 C   0  0  0  0  0  0  0  0  0  0  0  0
   39.0317  -23.0729   34.1730 C   0  0  0  0  0  0  0  0  0  0  0  0
   34.0636  -13.4686   36.2294 O   0  0  0  0  0  0  0  0  0  0  0  0
   32.8028  -12.9818   36.3683 C   0  0  0  0  0  0  0  0  0  0  0  0
   32.4052  -12.5202   37.7468 C   0  0  0  0  0  0  0  0  0  0  0  0
   31.3632  -11.4158   37.5349 C   0  0  0  0  0  0  0  0  0  0  0  0
   30.0633  -11.9673   37.7739 N   0  0  0  0  0  0  0  0  0  0  0  0
   29.9412  -12.5485   39.0709 C   0  0  0  0  0  0  0  0  0  0  0  0
   28.5188  -12.8573   39.4790 C   0  0  0  0  0  0  0  0  0  0  0  0
   27.5971  -11.6822   39.2864 C   0  0  0  0  0  0  0  0  0  0  0  0
   28.4287  -10.5110   38.8238 C   0  0  0  0  0  0  0  0  0  0  0  0
   29.0892  -10.9264   37.5271 C   0  0  0  0  0  0  0  0  0  0  0  0
 21 22  1  0  0  0
 22  1  1  0  0  0
  1  2  2  0  0  0
  2  3  1  0  0  0
  3  4  2  0  0  0
  4 23  1  0  0  0
 23 25  1  0  0  0
 25 26  1  0  0  0
 26 27  1  0  0  0
 27 28  1  0  0  0
 28 31  1  0  0  0
 31 32  1  0  0  0
 32 33  1  0  0  0
 33 34  1  0  0  0
 34 35  1  0  0  0
 35 36  1  0  0  0
 36 37  1  0  0  0
 28 29  1  0  0  0
 29 30  1  0  0  0
  4  5  1  0  0  0
  5  6  2  0  0  0
  6  7  1  0  0  0
  7  8  2  0  0  0
  8  9  1  0  0  0
  9 10  2  0  0  0
 10 38  1  0  0  0
 38 39  1  0  0  0
 39 40  1  0  0  0
 40 41  1  0  0  0
 41 42  1  0  0  0
 42 43  1  0  0  0
 43 44  1  0  0  0
 44 45  1  0  0  0
 45 46  1  0  0  0
 46 47  1  0  0  0
  6 11  1  0  0  0
 11 12  1  0  0  0
 12 13  1  0  0  0
 13 14  1  0  0  0
 14 15  1  0  0  0
 15 16  1  0  0  0
 16 17  1  0  0  0
 15 18  1  0  0  0
 18 19  1  0  0  0
 18 20  1  0  0  0
 10  1  1  0  0  0
 47 42  1  0  0  0
 17 11  1  0  0  0
  8  3  1  0  0  0
 30 25  1  0  0  0
 37 32  1  0  0  0
 23 24  1  0  0  0
M  END
> <minimizedAffinity>
-8.31154

> <CNNscore>
0.3377656341

> <CNNaffinity>
7.2090744972

> <CNN_VS>
2.4349775314

> <CNNaffinity_variance>
0.1156453639

$$$$
[H]c1c(OC([H])([H])C([H])([H])C([H])([H])N2C([H])([H])C([H])([H])C([H])([H])C([H])([H])C2([H])[H])c(OC([H])([H])[H])c([H])c2c(N([H])C3([H])C([H])([H])C([H])([H])N(C([H])([H])C4([H])C([H])([H])C([H])([H])C([H])([H])C([H])([H])C4([H])[H])C([H])([H])C3([H])[H])nc(N3C([H])([H])C([H])([H])N(C([H])(C([H])([H])[H])C([H])([H])[H])C([H])([H])C([H])([H])C3([H])[H])nc12


 47 52  0  0  0  0  0  0  0  0999 V2000
   35.9671  -14.3216   36.3346 C   0  0  0  0  0  0  0  0  0  0  0  0
   36.5316  -15.5488   36.1101 C   0  0  0  0  0  0  0  0  0  0  0  0
   35.7678  -16.6675   35.8746 C   0  0  0  0  0  0  0  0  0  0  0  0
   36.2728  -17.9217   35.6387 C   0  0  0  0  0  0  0  0  0  0  0  0
   35.4348  -18.9504   35.4119 N   0  0  0  0  0  0  0  0  0  0  0  0
   34.0980  -18.8284   35.4014 C   0  0  0  0  0  0  0  0  0  0  0  0
   33.6115  -17.5971   35.6345 N   0  0  0  0  0  0  0  0  0  0  0  0
   34.3749  -16.5180   35.8694 C   0  0  0  0  0  0  0  0  0  0  0  0
   33.8399  -15.2651   36.1004 C   0  0  0  0  0  0  0  0  0  0  0  0
   34.5755  -14.1292   36.3393 C   0  0  0  0  0  0  0  0  0  0  0  0
   33.2112  -19.9400   35.1581 N   0  0  0  0  0  0  0  0  0  0  0  0
   32.3083  -19.8102   34.0321 C   0  0  0  0  0  0  0  0  0  0  0  0
   30.9727  -19.3405   34.5689 C   0  0  0  0  0  0  0  0  0  0  0  0
   30.4696  -20.4060   35.5237 C   0  0  0  0  0  0  0  0  0  0  0  0
   31.1226  -21.6317   35.2296 N   0  0  0  0  0  0  0  0  0  0  0  0
   32.2239  -21.9802   36.0658 C   0  0  0  0  0  0  0  0  0  0  0  0
   33.3620  -21.0217   36.0890 C   0  0  0  0  0  0  0  0  0  0  0  0
   30.2702  -22.7517   34.9587 C   0  0  0  0  0  0  0  0  0  0  0  0
   30.8571  -24.0781   35.3478 C   0  0  0  0  0  0  0  0  0  0  0  0
   28.9481  -22.5305   35.6626 C   0  0  0  0  0  0  0  0  0  0  0  0
   37.8644  -13.3058   37.4401 C   0  0  0  0  0  0  0  0  0  0  0  0
   36.7577  -13.2061   36.5692 O   0  0  0  0  0  0  0  0  0  0  0  0
   37.6703  -18.1362   35.6499 N   0  0  0  0  0  0  0  0  0  0  0  0
   38.2786  -17.2517   35.6664 H   0  0  0  0  0  0  0  0  0  0  0  0
   38.3538  -19.3842   35.6423 C   0  0  0  0  0  0  0  0  0  0  0  0
   38.7740  -19.9028   34.2808 C   0  0  0  0  0  0  0  0  0  0  0  0
   39.2687  -21.3383   34.4236 C   0  0  0  0  0  0  0  0  0  0  0  0
   39.0301  -21.7004   35.8538 N   0  0  0  0  0  0  0  0  0  0  0  0
   40.0126  -20.9262   36.5493 C   0  0  0  0  0  0  0  0  0  0  0  0
   39.4495  -19.4865   36.6476 C   0  0  0  0  0  0  0  0  0  0  0  0
   39.0673  -23.1092   35.9727 C   0  0  0  0  0  0  0  0  0  0  0  0
   37.9182  -23.8108   36.6024 C   0  0  0  0  0  0  0  0  0  0  0  0
   37.3381  -24.8868   35.7835 C   0  0  0  0  0  0  0  0  0  0  0  0
   36.0440  -25.4438   36.3814 C   0  0  0  0  0  0  0  0  0  0  0  0
   35.1080  -24.3913   36.8673 C   0  0  0  0  0  0  0  0  0  0  0  0
   35.8109  -23.4440   37.7899 C   0  0  0  0  0  0  0  0  0  0  0  0
   36.8993  -22.7369   36.9779 C   0  0  0  0  0  0  0  0  0  0  0  0
   34.0903  -12.8764   36.5767 O   0  0  0  0  0  0  0  0  0  0  0  0
   33.6483  -12.2217   37.6821 C   0  0  0  0  0  0  0  0  0  0  0  0
   32.2765  -12.5934   38.1837 C   0  0  0  0  0  0  0  0  0  0  0  0
   31.3091  -11.5944   37.5382 C   0  0  0  0  0  0  0  0  0  0  0  0
   29.9701  -12.0493   37.7648 N   0  0  0  0  0  0  0  0  0  0  0  0
   29.7950  -12.6249   39.0583 C   0  0  0  0  0  0  0  0  0  0  0  0
   28.3505  -12.8292   39.4541 C   0  0  0  0  0  0  0  0  0  0  0  0
   27.5196  -11.5886   39.2595 C   0  0  0  0  0  0  0  0  0  0  0  0
   28.4392  -10.4802   38.8084 C   0  0  0  0  0  0  0  0  0  0  0  0
   29.0775  -10.9384   37.5150 C   0  0  0  0  0  0  0  0  0  0  0  0
 21 22  1  0  0  0
 22  1  1  0  0  0
  1  2  2  0  0  0
  2  3  1  0  0  0
  3  4  2  0  0  0
  4 23  1  0  0  0
 23 25  1  0  0  0
 25 26  1  0  0  0
 26 27  1  0  0  0
 27 28  1  0  0  0
 28 31  1  0  0  0
 31 32  1  0  0  0
 32 33  1  0  0  0
 33 34  1  0  0  0
 34 35  1  0  0  0
 35 36  1  0  0  0
 36 37  1  0  0  0
 28 29  1  0  0  0
 29 30  1  0  0  0
  4  5  1  0  0  0
  5  6  2  0  0  0
  6  7  1  0  0  0
  7  8  2  0  0  0
  8  9  1  0  0  0
  9 10  2  0  0  0
 10 38  1  0  0  0
 38 39  1  0  0  0
 39 40  1  0  0  0
 40 41  1  0  0  0
 41 42  1  0  0  0
 42 43  1  0  0  0
 43 44  1  0  0  0
 44 45  1  0  0  0
 45 46  1  0  0  0
 46 47  1  0  0  0
  6 11  1  0  0  0
 11 12  1  0  0  0
 12 13  1  0  0  0
 13 14  1  0  0  0
 14 15  1  0  0  0
 15 16  1  0  0  0
 16 17  1  0  0  0
 15 18  1  0  0  0
 18 19  1  0  0  0
 18 20  1  0  0  0
 10  1  1  0  0  0
 47 42  1  0  0  0
 17 11  1  0  0  0
  8  3  1  0  0  0
 30 25  1  0  0  0
 37 32  1  0  0  0
 23 24  1  0  0  0
M  END
> <minimizedAffinity>
-8.40126

> <CNNscore>
0.2949151099

> <CNNaffinity>
7.3351621628

> <CNN_VS>
2.1632502079

> <CNNaffinity_variance>
0.2149344981

$$$$
[H]c1c(OC([H])([H])C([H])([H])C([H])([H])N2C([H])([H])C([H])([H])C([H])([H])C([H])([H])C2([H])[H])c(OC([H])([H])[H])c([H])c2c(N([H])C3([H])C([H])([H])C([H])([H])N(C([H])([H])C4([H])C([H])([H])C([H])([H])C([H])([H])C([H])([H])C4([H])[H])C([H])([H])C3([H])[H])nc(N3C([H])([H])C([H])([H])N(C([H])(C([H])([H])[H])C([H])([H])[H])C([H])([H])C([H])([H])C3([H])[H])nc12


 47 52  0  0  0  0  0  0  0  0999 V2000
   35.9646  -14.7369   36.1055 C   0  0  0  0  0  0  0  0  0  0  0  0
   36.4611  -15.9800   35.8173 C   0  0  0  0  0  0  0  0  0  0  0  0
   35.6388  -17.0677   35.6409 C   0  0  0  0  0  0  0  0  0  0  0  0
   36.0741  -18.3355   35.3464 C   0  0  0  0  0  0  0  0  0  0  0  0
   35.1820  -19.3306   35.1864 N   0  0  0  0  0  0  0  0  0  0  0  0
   33.8551  -19.1613   35.2995 C   0  0  0  0  0  0  0  0  0  0  0  0
   33.4371  -17.9170   35.5893 N   0  0  0  0  0  0  0  0  0  0  0  0
   34.2576  -16.8689   35.7647 C   0  0  0  0  0  0  0  0  0  0  0  0
   33.7919  -15.6012   36.0570 C   0  0  0  0  0  0  0  0  0  0  0  0
   34.5871  -14.4954   36.2396 C   0  0  0  0  0  0  0  0  0  0  0  0
   32.9099  -20.2374   35.1267 N   0  0  0  0  0  0  0  0  0  0  0  0
   31.9422  -20.0805   34.0594 C   0  0  0  0  0  0  0  0  0  0  0  0
   30.6643  -19.5511   34.6753 C   0  0  0  0  0  0  0  0  0  0  0  0
   30.1810  -20.5861   35.6728 C   0  0  0  0  0  0  0  0  0  0  0  0
   30.7631  -21.8404   35.3517 N   0  0  0  0  0  0  0  0  0  0  0  0
   31.9010  -22.2267   36.1196 C   0  0  0  0  0  0  0  0  0  0  0  0
   33.0763  -21.3159   36.0586 C   0  0  0  0  0  0  0  0  0  0  0  0
   29.8500  -22.9265   35.1491 C   0  0  0  0  0  0  0  0  0  0  0  0
   30.3090  -24.2315   35.7337 C   0  0  0  0  0  0  0  0  0  0  0  0
   28.5035  -22.5349   35.7199 C   0  0  0  0  0  0  0  0  0  0  0  0
   37.6546  -13.5998   37.4112 C   0  0  0  0  0  0  0  0  0  0  0  0
   36.8134  -13.6534   36.2786 O   0  0  0  0  0  0  0  0  0  0  0  0
   37.4581  -18.5994   35.2275 N   0  0  0  0  0  0  0  0  0  0  0  0
   37.9657  -18.0829   34.4349 H   0  0  0  0  0  0  0  0  0  0  0  0
   38.2458  -19.4661   36.0355 C   0  0  0  0  0  0  0  0  0  0  0  0
   38.4634  -20.8650   35.4923 C   0  0  0  0  0  0  0  0  0  0  0  0
   39.1112  -21.7253   36.5722 C   0  0  0  0  0  0  0  0  0  0  0  0
   39.1683  -20.8595   37.7889 N   0  0  0  0  0  0  0  0  0  0  0  0
   40.1805  -19.9039   37.4560 C   0  0  0  0  0  0  0  0  0  0  0  0
   39.5085  -18.8532   36.5375 C   0  0  0  0  0  0  0  0  0  0  0  0
   39.3613  -21.6865   38.9199 C   0  0  0  0  0  0  0  0  0  0  0  0
   39.1593  -21.1129   40.2762 C   0  0  0  0  0  0  0  0  0  0  0  0
   40.3888  -20.9884   41.0746 C   0  0  0  0  0  0  0  0  0  0  0  0
   40.1068  -20.5824   42.5231 C   0  0  0  0  0  0  0  0  0  0  0  0
   38.9760  -21.3278   43.1440 C   0  0  0  0  0  0  0  0  0  0  0  0
   37.7576  -21.2589   42.2761 C   0  0  0  0  0  0  0  0  0  0  0  0
   38.0924  -21.9656   40.9598 C   0  0  0  0  0  0  0  0  0  0  0  0
   34.1716  -13.2297   36.5336 O   0  0  0  0  0  0  0  0  0  0  0  0
   33.8492  -12.5773   37.6810 C   0  0  0  0  0  0  0  0  0  0  0  0
   32.5071  -12.8990   38.2864 C   0  0  0  0  0  0  0  0  0  0  0  0
   31.4701  -12.1869   37.4100 C   0  0  0  0  0  0  0  0  0  0  0  0
   30.4950  -11.5791   38.2648 N   0  0  0  0  0  0  0  0  0  0  0  0
   29.3644  -11.0861   37.5480 C   0  0  0  0  0  0  0  0  0  0  0  0
   28.1862  -10.7250   38.4234 C   0  0  0  0  0  0  0  0  0  0  0  0
   27.8228  -11.8276   39.3824 C   0  0  0  0  0  0  0  0  0  0  0  0
   28.7152  -13.0092   39.0909 C   0  0  0  0  0  0  0  0  0  0  0  0
   30.1411  -12.5412   39.2859 C   0  0  0  0  0  0  0  0  0  0  0  0
 21 22  1  0  0  0
 22  1  1  0  0  0
  1  2  2  0  0  0
  2  3  1  0  0  0
  3  4  2  0  0  0
  4 23  1  0  0  0
 23 25  1  0  0  0
 25 26  1  0  0  0
 26 27  1  0  0  0
 27 28  1  0  0  0
 28 31  1  0  0  0
 31 32  1  0  0  0
 32 33  1  0  0  0
 33 34  1  0  0  0
 34 35  1  0  0  0
 35 36  1  0  0  0
 36 37  1  0  0  0
 28 29  1  0  0  0
 29 30  1  0  0  0
  4  5  1  0  0  0
  5  6  2  0  0  0
  6  7  1  0  0  0
  7  8  2  0  0  0
  8  9  1  0  0  0
  9 10  2  0  0  0
 10 38  1  0  0  0
 38 39  1  0  0  0
 39 40  1  0  0  0
 40 41  1  0  0  0
 41 42  1  0  0  0
 42 43  1  0  0  0
 43 44  1  0  0  0
 44 45  1  0  0  0
 45 46  1  0  0  0
 46 47  1  0  0  0
  6 11  1  0  0  0
 11 12  1  0  0  0
 12 13  1  0  0  0
 13 14  1  0  0  0
 14 15  1  0  0  0
 15 16  1  0  0  0
 16 17  1  0  0  0
 15 18  1  0  0  0
 18 19  1  0  0  0
 18 20  1  0  0  0
 10  1  1  0  0  0
 47 42  1  0  0  0
 17 11  1  0  0  0
  8  3  1  0  0  0
 30 25  1  0  0  0
 37 32  1  0  0  0
 23 24  1  0  0  0
M  END
> <minimizedAffinity>
-8.26128

> <CNNscore>
0.2173496485

> <CNNaffinity>
7.0297126770

> <CNN_VS>
1.5279055834

> <CNNaffinity_variance>
0.4911565781

$$$$
[H]c1c(OC([H])([H])C([H])([H])C([H])([H])N2C([H])([H])C([H])([H])C([H])([H])C([H])([H])C2([H])[H])c(OC([H])([H])[H])c([H])c2c(N([H])C3([H])C([H])([H])C([H])([H])N(C([H])([H])C4([H])C([H])([H])C([H])([H])C([H])([H])C([H])([H])C4([H])[H])C([H])([H])C3([H])[H])nc(N3C([H])([H])C([H])([H])N(C([H])(C([H])([H])[H])C([H])([H])[H])C([H])([H])C([H])([H])C3([H])[H])nc12


 47 52  0  0  0  0  0  0  0  0999 V2000
   41.8250  -18.9832   36.4385 C   0  0  0  0  0  0  0  0  0  0  0  0
   40.4926  -18.6873   36.3269 C   0  0  0  0  0  0  0  0  0  0  0  0
   39.5329  -19.3853   37.0212 C   0  0  0  0  0  0  0  0  0  0  0  0
   38.1852  -19.1345   36.9557 C   0  0  0  0  0  0  0  0  0  0  0  0
   37.3291  -19.8749   37.6842 N   0  0  0  0  0  0  0  0  0  0  0  0
   37.7166  -20.8726   38.4943 C   0  0  0  0  0  0  0  0  0  0  0  0
   39.0380  -21.1126   38.5519 N   0  0  0  0  0  0  0  0  0  0  0  0
   39.9592  -20.4233   37.8599 C   0  0  0  0  0  0  0  0  0  0  0  0
   41.3112  -20.6946   37.9475 C   0  0  0  0  0  0  0  0  0  0  0  0
   42.2937  -20.0165   37.2668 C   0  0  0  0  0  0  0  0  0  0  0  0
   36.7878  -21.6593   39.2688 N   0  0  0  0  0  0  0  0  0  0  0  0
   35.4092  -21.2128   39.2705 C   0  0  0  0  0  0  0  0  0  0  0  0
   35.1945  -20.3972   40.5280 C   0  0  0  0  0  0  0  0  0  0  0  0
   35.4500  -21.3130   41.7095 C   0  0  0  0  0  0  0  0  0  0  0  0
   35.3157  -22.6606   41.2837 N   0  0  0  0  0  0  0  0  0  0  0  0
   36.5259  -23.3599   41.0010 C   0  0  0  0  0  0  0  0  0  0  0  0
   37.3858  -22.7824   39.9325 C   0  0  0  0  0  0  0  0  0  0  0  0
   34.3822  -23.4640   42.0168 C   0  0  0  0  0  0  0  0  0  0  0  0
   32.9590  -23.3239   41.5582 C   0  0  0  0  0  0  0  0  0  0  0  0
   34.8250  -24.9096   41.9355 C   0  0  0  0  0  0  0  0  0  0  0  0
   42.8401  -18.3897   34.3240 C   0  0  0  0  0  0  0  0  0  0  0  0
   42.7760  -18.2647   35.7288 O   0  0  0  0  0  0  0  0  0  0  0  0
   37.6954  -18.1110   36.1120 N   0  0  0  0  0  0  0  0  0  0  0  0
   38.4027  -17.3500   35.8417 H   0  0  0  0  0  0  0  0  0  0  0  0
   36.3799  -17.9796   35.5858 C   0  0  0  0  0  0  0  0  0  0  0  0
   35.6337  -16.7170   35.9711 C   0  0  0  0  0  0  0  0  0  0  0  0
   34.1785  -16.8430   35.5325 C   0  0  0  0  0  0  0  0  0  0  0  0
   34.0451  -18.2297   34.9916 N   0  0  0  0  0  0  0  0  0  0  0  0
   34.7720  -18.1654   33.7603 C   0  0  0  0  0  0  0  0  0  0  0  0
   36.2724  -18.2759   34.1290 C   0  0  0  0  0  0  0  0  0  0  0  0
   32.6720  -18.5663   34.9523 C   0  0  0  0  0  0  0  0  0  0  0  0
   32.2489  -19.9229   35.3881 C   0  0  0  0  0  0  0  0  0  0  0  0
   32.8420  -20.3673   36.6591 C   0  0  0  0  0  0  0  0  0  0  0  0
   32.5361  -21.8353   36.9654 C   0  0  0  0  0  0  0  0  0  0  0  0
   32.7063  -22.7391   35.7931 C   0  0  0  0  0  0  0  0  0  0  0  0
   31.9428  -22.2230   34.6128 C   0  0  0  0  0  0  0  0  0  0  0  0
   32.5507  -20.8712   34.2296 C   0  0  0  0  0  0  0  0  0  0  0  0
   43.6363  -20.2533   37.3192 O   0  0  0  0  0  0  0  0  0  0  0  0
   44.6011  -20.0537   38.2548 C   0  0  0  0  0  0  0  0  0  0  0  0
   44.3772  -20.6905   39.6022 C   0  0  0  0  0  0  0  0  0  0  0  0
   43.8928  -19.5645   40.5229 C   0  0  0  0  0  0  0  0  0  0  0  0
   43.3782  -20.1509   41.7240 N   0  0  0  0  0  0  0  0  0  0  0  0
   42.6433  -19.2225   42.5196 C   0  0  0  0  0  0  0  0  0  0  0  0
   41.8288  -19.8610   43.6214 C   0  0  0  0  0  0  0  0  0  0  0  0
   40.9721  -20.9937   43.1210 C   0  0  0  0  0  0  0  0  0  0  0  0
   41.1335  -21.0707   41.6225 C   0  0  0  0  0  0  0  0  0  0  0  0
   42.6023  -21.3138   41.3510 C   0  0  0  0  0  0  0  0  0  0  0  0
 21 22  1  0  0  0
 22  1  1  0  0  0
  1  2  2  0  0  0
  2  3  1  0  0  0
  3  4  2  0  0  0
  4 23  1  0  0  0
 23 25  1  0  0  0
 25 26  1  0  0  0
 26 27  1  0  0  0
 27 28  1  0  0  0
 28 31  1  0  0  0
 31 32  1  0  0  0
 32 33  1  0  0  0
 33 34  1  0  0  0
 34 35  1  0  0  0
 35 36  1  0  0  0
 36 37  1  0  0  0
 28 29  1  0  0  0
 29 30  1  0  0  0
  4  5  1  0  0  0
  5  6  2  0  0  0
  6  7  1  0  0  0
  7  8  2  0  0  0
  8  9  1  0  0  0
  9 10  2  0  0  0
 10 38  1  0  0  0
 38 39  1  0  0  0
 39 40  1  0  0  0
 40 41  1  0  0  0
 41 42  1  0  0  0
 42 43  1  0  0  0
 43 44  1  0  0  0
 44 45  1  0  0  0
 45 46  1  0  0  0
 46 47  1  0  0  0
  6 11  1  0  0  0
 11 12  1  0  0  0
 12 13  1  0  0  0
 13 14  1  0  0  0
 14 15  1  0  0  0
 15 16  1  0  0  0
 16 17  1  0  0  0
 15 18  1  0  0  0
 18 19  1  0  0  0
 18 20  1  0  0  0
 10  1  1  0  0  0
 47 42  1  0  0  0
 17 11  1  0  0  0
  8  3  1  0  0  0
 30 25  1  0  0  0
 37 32  1  0  0  0
 23 24  1  0  0  0
M  END
> <minimizedAffinity>
-5.62807

> <CNNscore>
0.1424264461

> <CNNaffinity>
6.3285193443

> <CNN_VS>
0.9013485312

> <CNNaffinity_variance>
0.7085595131

$$$$
[H]c1c(OC([H])([H])C([H])([H])C([H])([H])N2C([H])([H])C([H])([H])C([H])([H])C([H])([H])C2([H])[H])c(OC([H])([H])[H])c([H])c2c(N([H])C3([H])C([H])([H])C([H])([H])N(C([H])([H])C4([H])C([H])([H])C([H])([H])C([H])([H])C([H])([H])C4([H])[H])C([H])([H])C3([H])[H])nc(N3C([H])([H])C([H])([H])N(C([H])(C([H])([H])[H])C([H])([H])[H])C([H])([H])C([H])([H])C3([H])[H])nc12


 47 52  0  0  0  0  0  0  0  0999 V2000
   35.3479  -19.9335   36.7087 C   0  0  0  0  0  0  0  0  0  0  0  0
   35.0200  -20.3206   37.9806 C   0  0  0  0  0  0  0  0  0  0  0  0
   35.9755  -20.7003   38.8933 C   0  0  0  0  0  0  0  0  0  0  0  0
   35.7116  -21.0933   40.1816 C   0  0  0  0  0  0  0  0  0  0  0  0
   36.7243  -21.4392   40.9980 N   0  0  0  0  0  0  0  0  0  0  0  0
   38.0139  -21.4259   40.6254 C   0  0  0  0  0  0  0  0  0  0  0  0
   38.2637  -21.0411   39.3618 N   0  0  0  0  0  0  0  0  0  0  0  0
   37.3148  -20.6804   38.4832 C   0  0  0  0  0  0  0  0  0  0  0  0
   37.6090  -20.2851   37.1922 C   0  0  0  0  0  0  0  0  0  0  0  0
   36.6779  -19.9010   36.2573 C   0  0  0  0  0  0  0  0  0  0  0  0
   39.0897  -21.8005   41.5106 N   0  0  0  0  0  0  0  0  0  0  0  0
   39.1674  -21.0865   42.7692 C   0  0  0  0  0  0  0  0  0  0  0  0
   40.1845  -19.9772   42.6034 C   0  0  0  0  0  0  0  0  0  0  0  0
   41.5168  -20.6294   42.2878 C   0  0  0  0  0  0  0  0  0  0  0  0
   41.4821  -21.9797   42.7243 N   0  0  0  0  0  0  0  0  0  0  0  0
   41.2259  -22.9632   41.7240 C   0  0  0  0  0  0  0  0  0  0  0  0
   39.9339  -22.8406   40.9959 C   0  0  0  0  0  0  0  0  0  0  0  0
   42.5234  -22.3788   43.6248 C   0  0  0  0  0  0  0  0  0  0  0  0
   42.8733  -23.8374   43.5509 C   0  0  0  0  0  0  0  0  0  0  0  0
   43.7453  -21.5266   43.3540 C   0  0  0  0  0  0  0  0  0  0  0  0
   33.8758  -18.2300   35.8227 C   0  0  0  0  0  0  0  0  0  0  0  0
   34.3668  -19.5536   35.8045 O   0  0  0  0  0  0  0  0  0  0  0  0
   34.3771  -21.1502   40.6454 N   0  0  0  0  0  0  0  0  0  0  0  0
   33.7069  -21.7573   40.0667 H   0  0  0  0  0  0  0  0  0  0  0  0
   33.8291  -20.4980   41.7851 C   0  0  0  0  0  0  0  0  0  0  0  0
   33.5165  -21.3874   42.9728 C   0  0  0  0  0  0  0  0  0  0  0  0
   32.7249  -20.5871   44.0018 C   0  0  0  0  0  0  0  0  0  0  0  0
   32.4742  -19.2587   43.3647 N   0  0  0  0  0  0  0  0  0  0  0  0
   33.7687  -18.6482   43.3747 C   0  0  0  0  0  0  0  0  0  0  0  0
   34.5513  -19.2567   42.1845 C   0  0  0  0  0  0  0  0  0  0  0  0
   31.4178  -18.6212   44.0561 C   0  0  0  0  0  0  0  0  0  0  0  0
   30.9089  -17.3183   43.5535 C   0  0  0  0  0  0  0  0  0  0  0  0
   30.5713  -16.3484   44.6071 C   0  0  0  0  0  0  0  0  0  0  0  0
   29.8704  -15.1051   44.0546 C   0  0  0  0  0  0  0  0  0  0  0  0
   28.8056  -15.4117   43.0585 C   0  0  0  0  0  0  0  0  0  0  0  0
   29.3329  -16.3061   41.9795 C   0  0  0  0  0  0  0  0  0  0  0  0
   29.7288  -17.6314   42.6360 C   0  0  0  0  0  0  0  0  0  0  0  0
   36.9224  -19.5092   34.9736 O   0  0  0  0  0  0  0  0  0  0  0  0
   37.3267  -18.3486   34.3943 C   0  0  0  0  0  0  0  0  0  0  0  0
   38.5166  -18.4324   33.4732 C   0  0  0  0  0  0  0  0  0  0  0  0
   39.4181  -19.5294   34.0513 C   0  0  0  0  0  0  0  0  0  0  0  0
   40.6282  -18.9221   34.5182 N   0  0  0  0  0  0  0  0  0  0  0  0
   40.7482  -18.9542   35.9394 C   0  0  0  0  0  0  0  0  0  0  0  0
   42.1292  -18.6140   36.4514 C   0  0  0  0  0  0  0  0  0  0  0  0
   43.2090  -19.4081   35.7651 C   0  0  0  0  0  0  0  0  0  0  0  0
   42.5422  -20.3839   34.8266 C   0  0  0  0  0  0  0  0  0  0  0  0
   41.7346  -19.5650   33.8430 C   0  0  0  0  0  0  0  0  0  0  0  0
 21 22  1  0  0  0
 22  1  1  0  0  0
  1  2  2  0  0  0
  2  3  1  0  0  0
  3  4  2  0  0  0
  4 23  1  0  0  0
 23 25  1  0  0  0
 25 26  1  0  0  0
 26 27  1  0  0  0
 27 28  1  0  0  0
 28 31  1  0  0  0
 31 32  1  0  0  0
 32 33  1  0  0  0
 33 34  1  0  0  0
 34 35  1  0  0  0
 35 36  1  0  0  0
 36 37  1  0  0  0
 28 29  1  0  0  0
 29 30  1  0  0  0
  4  5  1  0  0  0
  5  6  2  0  0  0
  6  7  1  0  0  0
  7  8  2  0  0  0
  8  9  1  0  0  0
  9 10  2  0  0  0
 10 38  1  0  0  0
 38 39  1  0  0  0
 39 40  1  0  0  0
 40 41  1  0  0  0
 41 42  1  0  0  0
 42 43  1  0  0  0
 43 44  1  0  0  0
 44 45  1  0  0  0
 45 46  1  0  0  0
 46 47  1  0  0  0
  6 11  1  0  0  0
 11 12  1  0  0  0
 12 13  1  0  0  0
 13 14  1  0  0  0
 14 15  1  0  0  0
 15 16  1  0  0  0
 16 17  1  0  0  0
 15 18  1  0  0  0
 18 19  1  0  0  0
 18 20  1  0  0  0
 10  1  1  0  0  0
 47 42  1  0  0  0
 17 11  1  0  0  0
  8  3  1  0  0  0
 30 25  1  0  0  0
 37 32  1  0  0  0
 23 24  1  0  0  0
M  END
> <minimizedAffinity>
-5.49178

> <CNNscore>
0.1366866082

> <CNNaffinity>
5.9399909973

> <CNN_VS>
0.8119172454

> <CNNaffinity_variance>
0.7173360586

$$$$
[H]c1c(OC([H])([H])C([H])([H])C([H])([H])N2C([H])([H])C([H])([H])C([H])([H])C([H])([H])C2([H])[H])c(OC([H])([H])[H])c([H])c2c(N([H])C3([H])C([H])([H])C([H])([H])N(C([H])([H])C4([H])C([H])([H])C([H])([H])C([H])([H])C([H])([H])C4([H])[H])C([H])([H])C3([H])[H])nc(N3C([H])([H])C([H])([H])N(C([H])(C([H])([H])[H])C([H])([H])[H])C([H])([H])C([H])([H])C3([H])[H])nc12


 47 52  0  0  0  0  0  0  0  0999 V2000
   39.5128  -21.8804   35.9494 C   0  0  0  0  0  0  0  0  0  0  0  0
   38.1699  -21.7515   36.1841 C   0  0  0  0  0  0  0  0  0  0  0  0
   37.5905  -20.5303   36.4360 C   0  0  0  0  0  0  0  0  0  0  0  0
   36.2529  -20.3354   36.6736 C   0  0  0  0  0  0  0  0  0  0  0  0
   35.7864  -19.0937   36.9028 N   0  0  0  0  0  0  0  0  0  0  0  0
   36.5653  -18.0005   36.9157 C   0  0  0  0  0  0  0  0  0  0  0  0
   37.8742  -18.2001   36.6833 N   0  0  0  0  0  0  0  0  0  0  0  0
   38.4217  -19.4028   36.4460 C   0  0  0  0  0  0  0  0  0  0  0  0
   39.7722  -19.5702   36.2059 C   0  0  0  0  0  0  0  0  0  0  0  0
   40.3809  -20.7758   35.9520 C   0  0  0  0  0  0  0  0  0  0  0  0
   36.0522  -16.6752   37.1640 N   0  0  0  0  0  0  0  0  0  0  0  0
   34.7639  -16.3623   36.5788 C   0  0  0  0  0  0  0  0  0  0  0  0
   35.0183  -15.6199   35.2839 C   0  0  0  0  0  0  0  0  0  0  0  0
   35.7591  -14.3434   35.6331 C   0  0  0  0  0  0  0  0  0  0  0  0
   35.5345  -14.0418   37.0019 N   0  0  0  0  0  0  0  0  0  0  0  0
   36.5704  -14.4092   37.9106 C   0  0  0  0  0  0  0  0  0  0  0  0
   36.9155  -15.8556   37.9655 C   0  0  0  0  0  0  0  0  0  0  0  0
   35.0017  -12.7411   37.2823 C   0  0  0  0  0  0  0  0  0  0  0  0
   35.1393  -11.7642   36.1500 C   0  0  0  0  0  0  0  0  0  0  0  0
   33.5480  -12.8924   37.6776 C   0  0  0  0  0  0  0  0  0  0  0  0
   39.6279  -24.2514   36.4169 C   0  0  0  0  0  0  0  0  0  0  0  0
   40.0756  -23.1228   35.6966 O   0  0  0  0  0  0  0  0  0  0  0  0
   35.3689  -21.4387   36.6938 N   0  0  0  0  0  0  0  0  0  0  0  0
   35.1445  -21.8751   35.7389 H   0  0  0  0  0  0  0  0  0  0  0  0
   34.7496  -22.0300   37.8302 C   0  0  0  0  0  0  0  0  0  0  0  0
   33.2690  -22.3299   37.6987 C   0  0  0  0  0  0  0  0  0  0  0  0
   32.7167  -22.7288   39.0632 C   0  0  0  0  0  0  0  0  0  0  0  0
   33.8519  -22.5511   40.0187 N   0  0  0  0  0  0  0  0  0  0  0  0
   34.7321  -23.6262   39.6753 C   0  0  0  0  0  0  0  0  0  0  0  0
   35.5072  -23.1739   38.4127 C   0  0  0  0  0  0  0  0  0  0  0  0
   33.3291  -22.4951   41.3317 C   0  0  0  0  0  0  0  0  0  0  0  0
   33.7682  -21.4011   42.2371 C   0  0  0  0  0  0  0  0  0  0  0  0
   33.9897  -20.1090   41.5691 C   0  0  0  0  0  0  0  0  0  0  0  0
   34.6266  -19.0723   42.4976 C   0  0  0  0  0  0  0  0  0  0  0  0
   35.7539  -19.6096   43.3102 C   0  0  0  0  0  0  0  0  0  0  0  0
   35.3392  -20.8548   44.0313 C   0  0  0  0  0  0  0  0  0  0  0  0
   35.0074  -21.9087   42.9715 C   0  0  0  0  0  0  0  0  0  0  0  0
   41.7077  -20.9874   35.7153 O   0  0  0  0  0  0  0  0  0  0  0  0
   42.7658  -21.3473   36.4878 C   0  0  0  0  0  0  0  0  0  0  0  0
   42.9737  -20.5613   37.7568 C   0  0  0  0  0  0  0  0  0  0  0  0
   44.1996  -19.6757   37.5055 C   0  0  0  0  0  0  0  0  0  0  0  0
   43.7984  -18.5662   36.6935 N   0  0  0  0  0  0  0  0  0  0  0  0
   43.5559  -17.3848   37.4555 C   0  0  0  0  0  0  0  0  0  0  0  0
   43.4378  -16.1268   36.6257 C   0  0  0  0  0  0  0  0  0  0  0  0
   44.5829  -15.9642   35.6614 C   0  0  0  0  0  0  0  0  0  0  0  0
   45.5574  -17.0907   35.9038 C   0  0  0  0  0  0  0  0  0  0  0  0
   44.8034  -18.3817   35.6692 C   0  0  0  0  0  0  0  0  0  0  0  0
 21 22  1  0  0  0
 22  1  1  0  0  0
  1  2  2  0  0  0
  2  3  1  0  0  0
  3  4  2  0  0  0
  4 23  1  0  0  0
 23 25  1  0  0  0
 25 26  1  0  0  0
 26 27  1  0  0  0
 27 28  1  0  0  0
 28 31  1  0  0  0
 31 32  1  0  0  0
 32 33  1  0  0  0
 33 34  1  0  0  0
 34 35  1  0  0  0
 35 36  1  0  0  0
 36 37  1  0  0  0
 28 29  1  0  0  0
 29 30  1  0  0  0
  4  5  1  0  0  0
  5  6  2  0  0  0
  6  7  1  0  0  0
  7  8  2  0  0  0
  8  9  1  0  0  0
  9 10  2  0  0  0
 10 38  1  0  0  0
 38 39  1  0  0  0
 39 40  1  0  0  0
 40 41  1  0  0  0
 41 42  1  0  0  0
 42 43  1  0  0  0
 43 44  1  0  0  0
 44 45  1  0  0  0
 45 46  1  0  0  0
 46 47  1  0  0  0
  6 11  1  0  0  0
 11 12  1  0  0  0
 12 13  1  0  0  0
 13 14  1  0  0  0
 14 15  1  0  0  0
 15 16  1  0  0  0
 16 17  1  0  0  0
 15 18  1  0  0  0
 18 19  1  0  0  0
 18 20  1  0  0  0
 10  1  1  0  0  0
 47 42  1  0  0  0
 17 11  1  0  0  0
  8  3  1  0  0  0
 30 25  1  0  0  0
 37 32  1  0  0  0
 23 24  1  0  0  0
M  END
> <minimizedAffinity>
-5.46100

> <CNNscore>
0.1300202608

> <CNNaffinity>
6.5983161926

> <CNN_VS>
0.8579148054

> <CNNaffinity_variance>
0.3266124129

$$$$
[H]c1c(-c2nc3c([H])c(OC([H])([H])C([H])([H])C([H])([H])N4C([H])([H])C([H])([H])C([H])([H])C4([H])[H])c(OC([H])([H])[H])c([H])c3c(N([H])C3([H])C([H])([H])C([H])([H])N(C([H])([H])[H])C([H])([H])C3([H])[H])c2[H])oc(C([H])([H])C([H])([H])[H])c1[H]


 37 41  0  0  0  0  0  0  0  0999 V2000
   33.7416  -18.0228   35.3950 C   0  0  0  0  0  0  0  0  0  0  0  0
   35.0729  -18.3590   35.2410 C   0  0  0  0  0  0  0  0  0  0  0  0
   36.0985  -17.4718   35.4941 C   0  0  0  0  0  0  0  0  0  0  0  0
   35.7217  -16.2107   35.9168 C   0  0  0  0  0  0  0  0  0  0  0  0
   36.6211  -15.2080   36.2118 C   0  0  0  0  0  0  0  0  0  0  0  0
   36.2415  -13.9402   36.6360 C   0  0  0  0  0  0  0  0  0  0  0  0
   34.9048  -13.6558   36.7734 C   0  0  0  0  0  0  0  0  0  0  0  0
   33.9656  -14.6236   36.4911 C   0  0  0  0  0  0  0  0  0  0  0  0
   34.3834  -15.8500   36.0790 C   0  0  0  0  0  0  0  0  0  0  0  0
   33.4621  -16.7829   35.8069 N   0  0  0  0  0  0  0  0  0  0  0  0
   30.8028  -20.0637   35.2283 C   0  0  0  0  0  0  0  0  0  0  0  0
   31.5595  -20.6685   34.2464 C   0  0  0  0  0  0  0  0  0  0  0  0
   32.7416  -19.9989   34.1763 C   0  0  0  0  0  0  0  0  0  0  0  0
   32.6840  -19.0004   35.1146 C   0  0  0  0  0  0  0  0  0  0  0  0
   31.5226  -19.0878   35.7004 O   0  0  0  0  0  0  0  0  0  0  0  0
   29.3181  -21.9969   35.6808 C   0  0  0  0  0  0  0  0  0  0  0  0
   29.4150  -20.4778   35.6482 C   0  0  0  0  0  0  0  0  0  0  0  0
   37.4673  -17.8047   35.3584 N   0  0  0  0  0  0  0  0  0  0  0  0
   38.1623  -17.1135   35.0142 H   0  0  0  0  0  0  0  0  0  0  0  0
   38.0052  -19.1142   35.6851 C   0  0  0  0  0  0  0  0  0  0  0  0
   39.3628  -18.9414   36.3468 C   0  0  0  0  0  0  0  0  0  0  0  0
   40.5061  -19.0894   35.4007 C   0  0  0  0  0  0  0  0  0  0  0  0
   40.2509  -18.6419   34.0626 N   0  0  0  0  0  0  0  0  0  0  0  0
   41.3907  -19.0605   33.2370 C   0  0  0  0  0  0  0  0  0  0  0  0
   39.0794  -19.1946   33.4576 C   0  0  0  0  0  0  0  0  0  0  0  0
   38.2289  -19.9654   34.4478 C   0  0  0  0  0  0  0  0  0  0  0  0
   37.1903  -12.9555   36.9235 O   0  0  0  0  0  0  0  0  0  0  0  0
   38.3191  -13.3468   37.6794 C   0  0  0  0  0  0  0  0  0  0  0  0
   34.5429  -12.3811   37.1992 O   0  0  0  0  0  0  0  0  0  0  0  0
   33.4991  -12.2688   38.1324 C   0  0  0  0  0  0  0  0  0  0  0  0
   32.4042  -11.3449   37.6788 C   0  0  0  0  0  0  0  0  0  0  0  0
   31.1613  -12.1039   37.2628 C   0  0  0  0  0  0  0  0  0  0  0  0
   30.0020  -11.2347   37.2069 N   0  0  0  0  0  0  0  0  0  0  0  0
   29.0205  -11.7011   38.1640 C   0  0  0  0  0  0  0  0  0  0  0  0
   28.3144  -10.4661   38.6778 C   0  0  0  0  0  0  0  0  0  0  0  0
   29.4514   -9.4678   38.7170 C   0  0  0  0  0  0  0  0  0  0  0  0
   30.4204   -9.9235   37.6587 C   0  0  0  0  0  0  0  0  0  0  0  0
 16 17  1  0  0  0
 17 11  1  0  0  0
 11 12  2  0  0  0
 12 13  1  0  0  0
 13 14  2  0  0  0
 14 15  1  0  0  0
 14  1  1  0  0  0
  1  2  2  0  0  0
  2  3  1  0  0  0
  3 18  1  0  0  0
 18 20  1  0  0  0
 20 21  1  0  0  0
 21 22  1  0  0  0
 22 23  1  0  0  0
 23 24  1  0  0  0
 23 25  1  0  0  0
 25 26  1  0  0  0
  3  4  2  0  0  0
  4  5  1  0  0  0
  5  6  2  0  0  0
  6 27  1  0  0  0
 27 28  1  0  0  0
  6  7  1  0  0  0
  7 29  1  0  0  0
 29 30  1  0  0  0
 30 31  1  0  0  0
 31 32  1  0  0  0
 32 33  1  0  0  0
 33 34  1  0  0  0
 34 35  1  0  0  0
 35 36  1  0  0  0
 36 37  1  0  0  0
  7  8  2  0  0  0
  8  9  1  0  0  0
  9 10  2  0  0  0
 15 11  1  0  0  0
 10  1  1  0  0  0
 26 20  1  0  0  0
  9  4  1  0  0  0
 37 33  1  0  0  0
 18 19  1  0  0  0
M  END
> <minimizedAffinity>
-8.97466

> <CNNscore>
0.8507393599

> <CNNaffinity>
7.4772682190

> <CNN_VS>
6.3612065315

> <CNNaffinity_variance>
0.0740439966

$$$$
[H]c1c(-c2nc3c([H])c(OC([H])([H])C([H])([H])C([H])([H])N4C([H])([H])C([H])([H])C([H])([H])C4([H])[H])c(OC([H])([H])[H])c([H])c3c(N([H])C3([H])C([H])([H])C([H])([H])N(C([H])([H])[H])C([H])([H])C3([H])[H])c2[H])oc(C([H])([H])C([H])([H])[H])c1[H]


 37 41  0  0  0  0  0  0  0  0999 V2000
   33.6771  -18.5785   35.6123 C   0  0  0  0  0  0  0  0  0  0  0  0
   34.9843  -18.9789   35.8123 C   0  0  0  0  0  0  0  0  0  0  0  0
   36.0028  -18.0878   36.0802 C   0  0  0  0  0  0  0  0  0  0  0  0
   35.6443  -16.7541   36.1402 C   0  0  0  0  0  0  0  0  0  0  0  0
   36.5396  -15.7375   36.3977 C   0  0  0  0  0  0  0  0  0  0  0  0
   36.1786  -14.3967   36.4572 C   0  0  0  0  0  0  0  0  0  0  0  0
   34.8655  -14.0504   36.2511 C   0  0  0  0  0  0  0  0  0  0  0  0
   33.9313  -15.0290   35.9903 C   0  0  0  0  0  0  0  0  0  0  0  0
   34.3304  -16.3277   35.9415 C   0  0  0  0  0  0  0  0  0  0  0  0
   33.4143  -17.2706   35.6869 N   0  0  0  0  0  0  0  0  0  0  0  0
   30.7131  -20.5738   35.3615 C   0  0  0  0  0  0  0  0  0  0  0  0
   31.5488  -21.2976   34.5368 C   0  0  0  0  0  0  0  0  0  0  0  0
   32.7507  -20.6607   34.5187 C   0  0  0  0  0  0  0  0  0  0  0  0
   32.6260  -19.5627   35.3308 C   0  0  0  0  0  0  0  0  0  0  0  0
   31.4086  -19.5639   35.7972 O   0  0  0  0  0  0  0  0  0  0  0  0
   29.0968  -22.4259   35.6833 C   0  0  0  0  0  0  0  0  0  0  0  0
   29.2782  -20.9142   35.6758 C   0  0  0  0  0  0  0  0  0  0  0  0
   37.3433  -18.4820   36.3047 N   0  0  0  0  0  0  0  0  0  0  0  0
   37.9289  -18.0252   37.0312 H   0  0  0  0  0  0  0  0  0  0  0  0
   37.9994  -19.5394   35.5548 C   0  0  0  0  0  0  0  0  0  0  0  0
   38.0033  -20.8099   36.3892 C   0  0  0  0  0  0  0  0  0  0  0  0
   39.2757  -21.0236   37.1371 C   0  0  0  0  0  0  0  0  0  0  0  0
   39.9341  -19.8267   37.5728 N   0  0  0  0  0  0  0  0  0  0  0  0
   41.2533  -20.2160   38.0869 C   0  0  0  0  0  0  0  0  0  0  0  0
   40.1619  -18.8586   36.5458 C   0  0  0  0  0  0  0  0  0  0  0  0
   39.4511  -19.2112   35.2542 C   0  0  0  0  0  0  0  0  0  0  0  0
   37.1224  -13.4008   36.7214 O   0  0  0  0  0  0  0  0  0  0  0  0
   38.0148  -13.6247   37.7948 C   0  0  0  0  0  0  0  0  0  0  0  0
   34.5219  -12.7031   36.3144 O   0  0  0  0  0  0  0  0  0  0  0  0
   34.0230  -12.2058   37.5296 C   0  0  0  0  0  0  0  0  0  0  0  0
   32.5955  -12.6011   37.7828 C   0  0  0  0  0  0  0  0  0  0  0  0
   31.6359  -11.4647   37.4969 C   0  0  0  0  0  0  0  0  0  0  0  0
   30.2556  -11.8899   37.6262 N   0  0  0  0  0  0  0  0  0  0  0  0
   30.0791  -12.5209   38.9175 C   0  0  0  0  0  0  0  0  0  0  0  0
   28.6692  -12.1931   39.3565 C   0  0  0  0  0  0  0  0  0  0  0  0
   28.5133  -10.7833   38.8284 C   0  0  0  0  0  0  0  0  0  0  0  0
   29.4335  -10.6973   37.6399 C   0  0  0  0  0  0  0  0  0  0  0  0
 16 17  1  0  0  0
 17 11  1  0  0  0
 11 12  2  0  0  0
 12 13  1  0  0  0
 13 14  2  0  0  0
 14 15  1  0  0  0
 14  1  1  0  0  0
  1  2  2  0  0  0
  2  3  1  0  0  0
  3 18  1  0  0  0
 18 20  1  0  0  0
 20 21  1  0  0  0
 21 22  1  0  0  0
 22 23  1  0  0  0
 23 24  1  0  0  0
 23 25  1  0  0  0
 25 26  1  0  0  0
  3  4  2  0  0  0
  4  5  1  0  0  0
  5  6  2  0  0  0
  6 27  1  0  0  0
 27 28  1  0  0  0
  6  7  1  0  0  0
  7 29  1  0  0  0
 29 30  1  0  0  0
 30 31  1  0  0  0
 31 32  1  0  0  0
 32 33  1  0  0  0
 33 34  1  0  0  0
 34 35  1  0  0  0
 35 36  1  0  0  0
 36 37  1  0  0  0
  7  8  2  0  0  0
  8  9  1  0  0  0
  9 10  2  0  0  0
 15 11  1  0  0  0
 10  1  1  0  0  0
 26 20  1  0  0  0
  9  4  1  0  0  0
 37 33  1  0  0  0
 18 19  1  0  0  0
M  END
> <minimizedAffinity>
-8.24307

> <CNNscore>
0.5932244062

> <CNNaffinity>
7.1319794655

> <CNN_VS>
4.2308640480

> <CNNaffinity_variance>
0.0785712749

$$$$
[H]c1c(-c2nc3c([H])c(OC([H])([H])C([H])([H])C([H])([H])N4C([H])([H])C([H])([H])C([H])([H])C4([H])[H])c(OC([H])([H])[H])c([H])c3c(N([H])C3([H])C([H])([H])C([H])([H])N(C([H])([H])[H])C([H])([H])C3([H])[H])c2[H])oc(C([H])([H])C([H])([H])[H])c1[H]


 37 41  0  0  0  0  0  0  0  0999 V2000
   33.5965  -19.0827   35.4308 C   0  0  0  0  0  0  0  0  0  0  0  0
   34.9235  -19.4385   35.2842 C   0  0  0  0  0  0  0  0  0  0  0  0
   35.9554  -18.5315   35.4096 C   0  0  0  0  0  0  0  0  0  0  0  0
   35.5894  -17.2292   35.6944 C   0  0  0  0  0  0  0  0  0  0  0  0
   36.4961  -16.2022   35.8513 C   0  0  0  0  0  0  0  0  0  0  0  0
   36.1274  -14.8930   36.1369 C   0  0  0  0  0  0  0  0  0  0  0  0
   34.7946  -14.5906   36.2730 C   0  0  0  0  0  0  0  0  0  0  0  0
   33.8484  -15.5813   36.1258 C   0  0  0  0  0  0  0  0  0  0  0  0
   34.2556  -16.8480   35.8465 C   0  0  0  0  0  0  0  0  0  0  0  0
   33.3276  -17.8030   35.7051 N   0  0  0  0  0  0  0  0  0  0  0  0
   30.5777  -21.0092   35.3577 C   0  0  0  0  0  0  0  0  0  0  0  0
   31.4568  -21.9384   34.8416 C   0  0  0  0  0  0  0  0  0  0  0  0
   32.6847  -21.3543   34.7995 C   0  0  0  0  0  0  0  0  0  0  0  0
   32.5319  -20.0826   35.2895 C   0  0  0  0  0  0  0  0  0  0  0  0
   31.2743  -19.9372   35.6007 O   0  0  0  0  0  0  0  0  0  0  0  0
   28.8269  -21.3835   37.0726 C   0  0  0  0  0  0  0  0  0  0  0  0
   29.1027  -21.2258   35.5836 C   0  0  0  0  0  0  0  0  0  0  0  0
   37.3203  -18.8820   35.2799 N   0  0  0  0  0  0  0  0  0  0  0  0
   37.8962  -18.5369   34.4872 H   0  0  0  0  0  0  0  0  0  0  0  0
   38.0176  -19.7349   36.2272 C   0  0  0  0  0  0  0  0  0  0  0  0
   39.3766  -19.1271   36.5343 C   0  0  0  0  0  0  0  0  0  0  0  0
   40.4834  -19.7100   35.7223 C   0  0  0  0  0  0  0  0  0  0  0  0
   40.1164  -20.1200   34.3983 N   0  0  0  0  0  0  0  0  0  0  0  0
   41.2561  -20.8566   33.8373 C   0  0  0  0  0  0  0  0  0  0  0  0
   38.9878  -20.9949   34.3315 C   0  0  0  0  0  0  0  0  0  0  0  0
   38.2774  -21.1211   35.6648 C   0  0  0  0  0  0  0  0  0  0  0  0
   37.0833  -13.8850   36.2870 O   0  0  0  0  0  0  0  0  0  0  0  0
   37.8000  -13.8504   37.5052 C   0  0  0  0  0  0  0  0  0  0  0  0
   34.4436  -13.2745   36.5590 O   0  0  0  0  0  0  0  0  0  0  0  0
   33.0993  -13.0007   36.8603 C   0  0  0  0  0  0  0  0  0  0  0  0
   32.9388  -12.0490   38.0121 C   0  0  0  0  0  0  0  0  0  0  0  0
   32.0584  -10.8703   37.6519 C   0  0  0  0  0  0  0  0  0  0  0  0
   32.7809   -9.6172   37.7533 N   0  0  0  0  0  0  0  0  0  0  0  0
   34.0235   -9.7324   37.0188 C   0  0  0  0  0  0  0  0  0  0  0  0
   34.3028   -8.3603   36.4470 C   0  0  0  0  0  0  0  0  0  0  0  0
   32.9049   -7.8882   36.1099 C   0  0  0  0  0  0  0  0  0  0  0  0
   31.9970   -8.6078   37.0714 C   0  0  0  0  0  0  0  0  0  0  0  0
 16 17  1  0  0  0
 17 11  1  0  0  0
 11 12  2  0  0  0
 12 13  1  0  0  0
 13 14  2  0  0  0
 14 15  1  0  0  0
 14  1  1  0  0  0
  1  2  2  0  0  0
  2  3  1  0  0  0
  3 18  1  0  0  0
 18 20  1  0  0  0
 20 21  1  0  0  0
 21 22  1  0  0  0
 22 23  1  0  0  0
 23 24  1  0  0  0
 23 25  1  0  0  0
 25 26  1  0  0  0
  3  4  2  0  0  0
  4  5  1  0  0  0
  5  6  2  0  0  0
  6 27  1  0  0  0
 27 28  1  0  0  0
  6  7  1  0  0  0
  7 29  1  0  0  0
 29 30  1  0  0  0
 30 31  1  0  0  0
 31 32  1  0  0  0
 32 33  1  0  0  0
 33 34  1  0  0  0
 34 35  1  0  0  0
 35 36  1  0  0  0
 36 37  1  0  0  0
  7  8  2  0  0  0
  8  9  1  0  0  0
  9 10  2  0  0  0
 15 11  1  0  0  0
 10  1  1  0  0  0
 26 20  1  0  0  0
  9  4  1  0  0  0
 37 33  1  0  0  0
 18 19  1  0  0  0
M  END
> <minimizedAffinity>
-7.82146

> <CNNscore>
0.5504851341

> <CNNaffinity>
7.0573949814

> <CNN_VS>
3.8849909306

> <CNNaffinity_variance>
0.0416106470

$$$$
[H]c1c(-c2nc3c([H])c(OC([H])([H])C([H])([H])C([H])([H])N4C([H])([H])C([H])([H])C([H])([H])C4([H])[H])c(OC([H])([H])[H])c([H])c3c(N([H])C3([H])C([H])([H])C([H])([H])N(C([H])([H])[H])C([H])([H])C3([H])[H])c2[H])oc(C([H])([H])C([H])([H])[H])c1[H]


 37 41  0  0  0  0  0  0  0  0999 V2000
   34.5239  -16.4844   35.7365 C   0  0  0  0  0  0  0  0  0  0  0  0
   35.5770  -17.2744   35.3171 C   0  0  0  0  0  0  0  0  0  0  0  0
   35.4074  -18.5752   34.8900 C   0  0  0  0  0  0  0  0  0  0  0  0
   34.1111  -19.0554   34.9022 C   0  0  0  0  0  0  0  0  0  0  0  0
   33.7700  -20.3317   34.5071 C   0  0  0  0  0  0  0  0  0  0  0  0
   32.4667  -20.8141   34.5203 C   0  0  0  0  0  0  0  0  0  0  0  0
   31.4549  -19.9887   34.9461 C   0  0  0  0  0  0  0  0  0  0  0  0
   31.7432  -18.7038   35.3514 C   0  0  0  0  0  0  0  0  0  0  0  0
   33.0330  -18.2750   35.3217 C   0  0  0  0  0  0  0  0  0  0  0  0
   33.3020  -17.0245   35.7181 N   0  0  0  0  0  0  0  0  0  0  0  0
   34.3905  -13.1419   37.0171 C   0  0  0  0  0  0  0  0  0  0  0  0
   35.7091  -13.1821   36.6142 C   0  0  0  0  0  0  0  0  0  0  0  0
   35.9346  -14.4167   36.0893 C   0  0  0  0  0  0  0  0  0  0  0  0
   34.7521  -15.1050   36.1816 C   0  0  0  0  0  0  0  0  0  0  0  0
   33.8826  -14.3062   36.7343 O   0  0  0  0  0  0  0  0  0  0  0  0
   32.4555  -12.4308   38.3940 C   0  0  0  0  0  0  0  0  0  0  0  0
   33.7028  -11.9625   37.6572 C   0  0  0  0  0  0  0  0  0  0  0  0
   36.4719  -19.3924   34.4409 N   0  0  0  0  0  0  0  0  0  0  0  0
   36.3006  -20.3366   34.0430 H   0  0  0  0  0  0  0  0  0  0  0  0
   37.8659  -18.9865   34.4952 C   0  0  0  0  0  0  0  0  0  0  0  0
   38.6756  -19.8678   33.5581 C   0  0  0  0  0  0  0  0  0  0  0  0
   39.3404  -21.0114   34.2470 C   0  0  0  0  0  0  0  0  0  0  0  0
   38.6213  -21.5501   35.3644 N   0  0  0  0  0  0  0  0  0  0  0  0
   39.5120  -22.5029   36.0390 C   0  0  0  0  0  0  0  0  0  0  0  0
   38.2283  -20.5881   36.3461 C   0  0  0  0  0  0  0  0  0  0  0  0
   38.4595  -19.1637   35.8815 C   0  0  0  0  0  0  0  0  0  0  0  0
   32.1694  -22.1164   34.1103 O   0  0  0  0  0  0  0  0  0  0  0  0
   32.1309  -23.1156   35.1097 C   0  0  0  0  0  0  0  0  0  0  0  0
   30.1558  -20.4883   34.9527 O   0  0  0  0  0  0  0  0  0  0  0  0
   29.3194  -20.1376   36.0252 C   0  0  0  0  0  0  0  0  0  0  0  0
   28.6236  -21.3206   36.6371 C   0  0  0  0  0  0  0  0  0  0  0  0
   28.4795  -22.4623   35.6524 C   0  0  0  0  0  0  0  0  0  0  0  0
   28.3127  -23.7321   36.3322 N   0  0  0  0  0  0  0  0  0  0  0  0
   28.8535  -24.7847   35.4977 C   0  0  0  0  0  0  0  0  0  0  0  0
   29.4208  -25.8208   36.4424 C   0  0  0  0  0  0  0  0  0  0  0  0
   29.9733  -24.9457   37.5468 C   0  0  0  0  0  0  0  0  0  0  0  0
   29.1330  -23.6967   37.5256 C   0  0  0  0  0  0  0  0  0  0  0  0
 16 17  1  0  0  0
 17 11  1  0  0  0
 11 12  2  0  0  0
 12 13  1  0  0  0
 13 14  2  0  0  0
 14 15  1  0  0  0
 14  1  1  0  0  0
  1  2  2  0  0  0
  2  3  1  0  0  0
  3 18  1  0  0  0
 18 20  1  0  0  0
 20 21  1  0  0  0
 21 22  1  0  0  0
 22 23  1  0  0  0
 23 24  1  0  0  0
 23 25  1  0  0  0
 25 26  1  0  0  0
  3  4  2  0  0  0
  4  5  1  0  0  0
  5  6  2  0  0  0
  6 27  1  0  0  0
 27 28  1  0  0  0
  6  7  1  0  0  0
  7 29  1  0  0  0
 29 30  1  0  0  0
 30 31  1  0  0  0
 31 32  1  0  0  0
 32 33  1  0  0  0
 33 34  1  0  0  0
 34 35  1  0  0  0
 35 36  1  0  0  0
 36 37  1  0  0  0
  7  8  2  0  0  0
  8  9  1  0  0  0
  9 10  2  0  0  0
 15 11  1  0  0  0
 10  1  1  0  0  0
 26 20  1  0  0  0
  9  4  1  0  0  0
 37 33  1  0  0  0
 18 19  1  0  0  0
M  END
> <minimizedAffinity>
-6.88339

> <CNNscore>
0.4331640601

> <CNNaffinity>
6.3345437050

> <CNN_VS>
2.7438967228

> <CNNaffinity_variance>
0.2499237061

$$$$
[H]c1c(-c2nc3c([H])c(OC([H])([H])C([H])([H])C([H])([H])N4C([H])([H])C([H])([H])C([H])([H])C4([H])[H])c(OC([H])([H])[H])c([H])c3c(N([H])C3([H])C([H])([H])C([H])([H])N(C([H])([H])[H])C([H])([H])C3([H])[H])c2[H])oc(C([H])([H])C([H])([H])[H])c1[H]


 37 41  0  0  0  0  0  0  0  0999 V2000
   34.5785  -16.3226   35.9800 C   0  0  0  0  0  0  0  0  0  0  0  0
   35.6507  -17.1899   35.8935 C   0  0  0  0  0  0  0  0  0  0  0  0
   35.5028  -18.5283   35.5935 C   0  0  0  0  0  0  0  0  0  0  0  0
   34.2086  -18.9644   35.3797 C   0  0  0  0  0  0  0  0  0  0  0  0
   33.8880  -20.2695   35.0707 C   0  0  0  0  0  0  0  0  0  0  0  0
   32.5865  -20.7075   34.8565 C   0  0  0  0  0  0  0  0  0  0  0  0
   31.5553  -19.8056   34.9542 C   0  0  0  0  0  0  0  0  0  0  0  0
   31.8226  -18.4892   35.2607 C   0  0  0  0  0  0  0  0  0  0  0  0
   33.1114  -18.1059   35.4620 C   0  0  0  0  0  0  0  0  0  0  0  0
   33.3599  -16.8242   35.7597 N   0  0  0  0  0  0  0  0  0  0  0  0
   34.4033  -12.8934   36.9995 C   0  0  0  0  0  0  0  0  0  0  0  0
   35.6977  -12.9268   36.5243 C   0  0  0  0  0  0  0  0  0  0  0  0
   35.9354  -14.1924   36.0857 C   0  0  0  0  0  0  0  0  0  0  0  0
   34.7841  -14.9057   36.3011 C   0  0  0  0  0  0  0  0  0  0  0  0
   33.9203  -14.0911   36.8394 O   0  0  0  0  0  0  0  0  0  0  0  0
   32.2727  -12.0367   37.9339 C   0  0  0  0  0  0  0  0  0  0  0  0
   33.7127  -11.6872   37.5842 C   0  0  0  0  0  0  0  0  0  0  0  0
   36.5909  -19.4265   35.4838 N   0  0  0  0  0  0  0  0  0  0  0  0
   36.4946  -20.4291   35.7383 H   0  0  0  0  0  0  0  0  0  0  0  0
   37.9070  -19.0304   35.0129 C   0  0  0  0  0  0  0  0  0  0  0  0
   38.3115  -19.9306   33.8569 C   0  0  0  0  0  0  0  0  0  0  0  0
   39.1816  -21.0695   34.2692 C   0  0  0  0  0  0  0  0  0  0  0  0
   38.9252  -21.5874   35.5814 N   0  0  0  0  0  0  0  0  0  0  0  0
   40.0004  -22.5374   35.8940 C   0  0  0  0  0  0  0  0  0  0  0  0
   38.9246  -20.6089   36.6238 C   0  0  0  0  0  0  0  0  0  0  0  0
   38.9705  -19.1929   36.0844 C   0  0  0  0  0  0  0  0  0  0  0  0
   32.3104  -22.0415   34.5455 O   0  0  0  0  0  0  0  0  0  0  0  0
   32.4922  -22.9955   35.5729 C   0  0  0  0  0  0  0  0  0  0  0  0
   30.2584  -20.2617   34.7366 O   0  0  0  0  0  0  0  0  0  0  0  0
   29.4862  -20.6135   35.8559 C   0  0  0  0  0  0  0  0  0  0  0  0
   28.8847  -21.9860   35.7451 C   0  0  0  0  0  0  0  0  0  0  0  0
   27.9211  -22.2732   36.8778 C   0  0  0  0  0  0  0  0  0  0  0  0
   28.2305  -21.4807   38.0521 N   0  0  0  0  0  0  0  0  0  0  0  0
   27.1369  -20.5644   38.3000 C   0  0  0  0  0  0  0  0  0  0  0  0
   27.0535  -20.4059   39.8020 C   0  0  0  0  0  0  0  0  0  0  0  0
   27.4002  -21.8034   40.2684 C   0  0  0  0  0  0  0  0  0  0  0  0
   28.2717  -22.3818   39.1855 C   0  0  0  0  0  0  0  0  0  0  0  0
 16 17  1  0  0  0
 17 11  1  0  0  0
 11 12  2  0  0  0
 12 13  1  0  0  0
 13 14  2  0  0  0
 14 15  1  0  0  0
 14  1  1  0  0  0
  1  2  2  0  0  0
  2  3  1  0  0  0
  3 18  1  0  0  0
 18 20  1  0  0  0
 20 21  1  0  0  0
 21 22  1  0  0  0
 22 23  1  0  0  0
 23 24  1  0  0  0
 23 25  1  0  0  0
 25 26  1  0  0  0
  3  4  2  0  0  0
  4  5  1  0  0  0
  5  6  2  0  0  0
  6 27  1  0  0  0
 27 28  1  0  0  0
  6  7  1  0  0  0
  7 29  1  0  0  0
 29 30  1  0  0  0
 30 31  1  0  0  0
 31 32  1  0  0  0
 32 33  1  0  0  0
 33 34  1  0  0  0
 34 35  1  0  0  0
 35 36  1  0  0  0
 36 37  1  0  0  0
  7  8  2  0  0  0
  8  9  1  0  0  0
  9 10  2  0  0  0
 15 11  1  0  0  0
 10  1  1  0  0  0
 26 20  1  0  0  0
  9  4  1  0  0  0
 37 33  1  0  0  0
 18 19  1  0  0  0
M  END
> <minimizedAffinity>
-6.88128

> <CNNscore>
0.3993651569

> <CNNaffinity>
6.1389641762

> <CNN_VS>
2.4516882896

> <CNNaffinity_variance>
0.4523917735

$$$$
[H]c1c(-c2nc3c([H])c(OC([H])([H])C([H])([H])C([H])([H])N4C([H])([H])C([H])([H])C([H])([H])C4([H])[H])c(OC([H])([H])[H])c([H])c3c(N([H])C3([H])C([H])([H])C([H])([H])N(C([H])([H])[H])C([H])([H])C3([H])[H])c2[H])oc(C([H])([H])C([H])([H])[H])c1[H]


 37 41  0  0  0  0  0  0  0  0999 V2000
   35.0370  -19.7895   35.7460 C   0  0  0  0  0  0  0  0  0  0  0  0
   36.1184  -19.1610   35.1589 C   0  0  0  0  0  0  0  0  0  0  0  0
   37.3895  -19.2134   35.6927 C   0  0  0  0  0  0  0  0  0  0  0  0
   37.5290  -19.9378   36.8617 C   0  0  0  0  0  0  0  0  0  0  0  0
   38.7294  -20.0891   37.5231 C   0  0  0  0  0  0  0  0  0  0  0  0
   38.8689  -20.8170   38.6988 C   0  0  0  0  0  0  0  0  0  0  0  0
   37.7628  -21.4231   39.2425 C   0  0  0  0  0  0  0  0  0  0  0  0
   36.5395  -21.3023   38.6201 C   0  0  0  0  0  0  0  0  0  0  0  0
   36.4506  -20.5803   37.4716 C   0  0  0  0  0  0  0  0  0  0  0  0
   35.2568  -20.4691   36.8752 N   0  0  0  0  0  0  0  0  0  0  0  0
   31.5636  -19.4498   34.9401 C   0  0  0  0  0  0  0  0  0  0  0  0
   32.0660  -19.7224   33.6848 C   0  0  0  0  0  0  0  0  0  0  0  0
   33.4107  -19.8838   33.8132 C   0  0  0  0  0  0  0  0  0  0  0  0
   33.7027  -19.7071   35.1414 C   0  0  0  0  0  0  0  0  0  0  0  0
   32.5795  -19.4550   35.7533 O   0  0  0  0  0  0  0  0  0  0  0  0
   29.4392  -20.5096   35.6544 C   0  0  0  0  0  0  0  0  0  0  0  0
   30.1139  -19.1996   35.2711 C   0  0  0  0  0  0  0  0  0  0  0  0
   38.5111  -18.5905   35.0955 N   0  0  0  0  0  0  0  0  0  0  0  0
   39.0134  -17.8119   35.5652 H   0  0  0  0  0  0  0  0  0  0  0  0
   39.0452  -18.9816   33.8022 C   0  0  0  0  0  0  0  0  0  0  0  0
   39.1607  -20.4964   33.7512 C   0  0  0  0  0  0  0  0  0  0  0  0
   40.5261  -20.9979   34.0803 C   0  0  0  0  0  0  0  0  0  0  0  0
   41.2483  -20.2130   35.0385 N   0  0  0  0  0  0  0  0  0  0  0  0
   42.6252  -20.7223   35.0718 C   0  0  0  0  0  0  0  0  0  0  0  0
   41.3324  -18.8191   34.7321 C   0  0  0  0  0  0  0  0  0  0  0  0
   40.4407  -18.4303   33.5694 C   0  0  0  0  0  0  0  0  0  0  0  0
   40.1073  -20.9423   39.3336 O   0  0  0  0  0  0  0  0  0  0  0  0
   41.1612  -20.1269   38.8610 C   0  0  0  0  0  0  0  0  0  0  0  0
   37.9209  -22.1480   40.4201 O   0  0  0  0  0  0  0  0  0  0  0  0
   37.3882  -23.4466   40.4721 C   0  0  0  0  0  0  0  0  0  0  0  0
   37.9111  -24.3387   39.3818 C   0  0  0  0  0  0  0  0  0  0  0  0
   39.3313  -24.7895   39.6537 C   0  0  0  0  0  0  0  0  0  0  0  0
   40.0699  -24.9897   38.4220 N   0  0  0  0  0  0  0  0  0  0  0  0
   39.3959  -24.2843   37.3519 C   0  0  0  0  0  0  0  0  0  0  0  0
   40.4819  -23.8081   36.4128 C   0  0  0  0  0  0  0  0  0  0  0  0
   41.5874  -23.4627   37.3871 C   0  0  0  0  0  0  0  0  0  0  0  0
   41.3604  -24.3513   38.5811 C   0  0  0  0  0  0  0  0  0  0  0  0
 16 17  1  0  0  0
 17 11  1  0  0  0
 11 12  2  0  0  0
 12 13  1  0  0  0
 13 14  2  0  0  0
 14 15  1  0  0  0
 14  1  1  0  0  0
  1  2  2  0  0  0
  2  3  1  0  0  0
  3 18  1  0  0  0
 18 20  1  0  0  0
 20 21  1  0  0  0
 21 22  1  0  0  0
 22 23  1  0  0  0
 23 24  1  0  0  0
 23 25  1  0  0  0
 25 26  1  0  0  0
  3  4  2  0  0  0
  4  5  1  0  0  0
  5  6  2  0  0  0
  6 27  1  0  0  0
 27 28  1  0  0  0
  6  7  1  0  0  0
  7 29  1  0  0  0
 29 30  1  0  0  0
 30 31  1  0  0  0
 31 32  1  0  0  0
 32 33  1  0  0  0
 33 34  1  0  0  0
 34 35  1  0  0  0
 35 36  1  0  0  0
 36 37  1  0  0  0
  7  8  2  0  0  0
  8  9  1  0  0  0
  9 10  2  0  0  0
 15 11  1  0  0  0
 10  1  1  0  0  0
 26 20  1  0  0  0
  9  4  1  0  0  0
 37 33  1  0  0  0
 18 19  1  0  0  0
M  END
> <minimizedAffinity>
-4.76026

> <CNNscore>
0.3754962683

> <CNNaffinity>
5.5823631287

> <CNN_VS>
2.0961565971

> <CNNaffinity_variance>
0.4746746123

$$$$
[H]c1c(-c2nc3c([H])c(OC([H])([H])C([H])([H])C([H])([H])N4C([H])([H])C([H])([H])C([H])([H])C4([H])[H])c(OC([H])([H])[H])c([H])c3c(N([H])C3([H])C([H])([H])C([H])([H])N(C([H])([H])[H])C([H])([H])C3([H])[H])c2[H])oc(C([H])([H])C([H])([H])[H])c1[H]


 37 41  0  0  0  0  0  0  0  0999 V2000
   34.9692  -19.7578   35.7689 C   0  0  0  0  0  0  0  0  0  0  0  0
   36.0491  -19.1298   35.1784 C   0  0  0  0  0  0  0  0  0  0  0  0
   37.3219  -19.1838   35.7076 C   0  0  0  0  0  0  0  0  0  0  0  0
   37.4650  -19.9094   36.8755 C   0  0  0  0  0  0  0  0  0  0  0  0
   38.6677  -20.0624   37.5323 C   0  0  0  0  0  0  0  0  0  0  0  0
   38.8107  -20.7915   38.7069 C   0  0  0  0  0  0  0  0  0  0  0  0
   37.7060  -21.3971   39.2540 C   0  0  0  0  0  0  0  0  0  0  0  0
   36.4807  -21.2746   38.6361 C   0  0  0  0  0  0  0  0  0  0  0  0
   36.3883  -20.5515   37.4886 C   0  0  0  0  0  0  0  0  0  0  0  0
   35.1924  -20.4386   36.8966 N   0  0  0  0  0  0  0  0  0  0  0  0
   31.4886  -19.4508   34.9808 C   0  0  0  0  0  0  0  0  0  0  0  0
   31.9951  -19.6520   33.7137 C   0  0  0  0  0  0  0  0  0  0  0  0
   33.3429  -19.7919   33.8340 C   0  0  0  0  0  0  0  0  0  0  0  0
   33.6328  -19.6736   35.1691 C   0  0  0  0  0  0  0  0  0  0  0  0
   32.5053  -19.4744   35.7927 O   0  0  0  0  0  0  0  0  0  0  0  0
   29.3787  -20.5907   35.6092 C   0  0  0  0  0  0  0  0  0  0  0  0
   30.0345  -19.2467   35.3237 C   0  0  0  0  0  0  0  0  0  0  0  0
   38.4420  -18.5614   35.1069 N   0  0  0  0  0  0  0  0  0  0  0  0
   38.9575  -17.7956   35.5833 H   0  0  0  0  0  0  0  0  0  0  0  0
   38.9563  -18.9355   33.8006 C   0  0  0  0  0  0  0  0  0  0  0  0
   39.0497  -20.4505   33.7199 C   0  0  0  0  0  0  0  0  0  0  0  0
   40.4114  -20.9771   34.0242 C   0  0  0  0  0  0  0  0  0  0  0  0
   41.1551  -20.2206   34.9887 N   0  0  0  0  0  0  0  0  0  0  0  0
   42.5249  -20.7497   34.9970 C   0  0  0  0  0  0  0  0  0  0  0  0
   41.2556  -18.8225   34.7075 C   0  0  0  0  0  0  0  0  0  0  0  0
   40.3568  -18.3994   33.5625 C   0  0  0  0  0  0  0  0  0  0  0  0
   40.0513  -20.9185   39.3371 O   0  0  0  0  0  0  0  0  0  0  0  0
   41.1884  -20.4815   38.6196 C   0  0  0  0  0  0  0  0  0  0  0  0
   37.8677  -22.1232   40.4304 O   0  0  0  0  0  0  0  0  0  0  0  0
   37.9368  -23.5230   40.3376 C   0  0  0  0  0  0  0  0  0  0  0  0
   36.6781  -24.2037   40.7963 C   0  0  0  0  0  0  0  0  0  0  0  0
   35.8355  -24.6775   39.6304 C   0  0  0  0  0  0  0  0  0  0  0  0
   34.4240  -24.4423   39.8650 N   0  0  0  0  0  0  0  0  0  0  0  0
   34.2816  -23.3681   40.8256 C   0  0  0  0  0  0  0  0  0  0  0  0
   33.0215  -22.6248   40.4415 C   0  0  0  0  0  0  0  0  0  0  0  0
   33.0779  -22.7039   38.9312 C   0  0  0  0  0  0  0  0  0  0  0  0
   33.8526  -23.9580   38.6250 C   0  0  0  0  0  0  0  0  0  0  0  0
 16 17  1  0  0  0
 17 11  1  0  0  0
 11 12  2  0  0  0
 12 13  1  0  0  0
 13 14  2  0  0  0
 14 15  1  0  0  0
 14  1  1  0  0  0
  1  2  2  0  0  0
  2  3  1  0  0  0
  3 18  1  0  0  0
 18 20  1  0  0  0
 20 21  1  0  0  0
 21 22  1  0  0  0
 22 23  1  0  0  0
 23 24  1  0  0  0
 23 25  1  0  0  0
 25 26  1  0  0  0
  3  4  2  0  0  0
  4  5  1  0  0  0
  5  6  2  0  0  0
  6 27  1  0  0  0
 27 28  1  0  0  0
  6  7  1  0  0  0
  7 29  1  0  0  0
 29 30  1  0  0  0
 30 31  1  0  0  0
 31 32  1  0  0  0
 32 33  1  0  0  0
 33 34  1  0  0  0
 34 35  1  0  0  0
 35 36  1  0  0  0
 36 37  1  0  0  0
  7  8  2  0  0  0
  8  9  1  0  0  0
  9 10  2  0  0  0
 15 11  1  0  0  0
 10  1  1  0  0  0
 26 20  1  0  0  0
  9  4  1  0  0  0
 37 33  1  0  0  0
 18 19  1  0  0  0
M  END
> <minimizedAffinity>
-4.84880

> <CNNscore>
0.2976321280

> <CNNaffinity>
5.6884789467

> <CNN_VS>
1.6930741072

> <CNNaffinity_variance>
0.3495083749

$$$$
[H]c1c(-c2nc3c([H])c(OC([H])([H])C([H])([H])C([H])([H])N4C([H])([H])C([H])([H])C([H])([H])C4([H])[H])c(OC([H])([H])[H])c([H])c3c(N([H])C3([H])C([H])([H])C([H])([H])N(C([H])([H])[H])C([H])([H])C3([H])[H])c2[H])oc(C([H])([H])C([H])([H])[H])c1[H]


 37 41  0  0  0  0  0  0  0  0999 V2000
   34.6890  -15.5141   36.0093 C   0  0  0  0  0  0  0  0  0  0  0  0
   35.8317  -16.2903   36.0370 C   0  0  0  0  0  0  0  0  0  0  0  0
   35.8223  -17.6391   35.7477 C   0  0  0  0  0  0  0  0  0  0  0  0
   34.5936  -18.1832   35.4231 C   0  0  0  0  0  0  0  0  0  0  0  0
   34.4109  -19.5132   35.1084 C   0  0  0  0  0  0  0  0  0  0  0  0
   33.1752  -20.0597   34.7828 C   0  0  0  0  0  0  0  0  0  0  0  0
   32.0692  -19.2455   34.7694 C   0  0  0  0  0  0  0  0  0  0  0  0
   32.1984  -17.9086   35.0764 C   0  0  0  0  0  0  0  0  0  0  0  0
   33.4272  -17.4179   35.3890 C   0  0  0  0  0  0  0  0  0  0  0  0
   33.5413  -16.1172   35.6862 N   0  0  0  0  0  0  0  0  0  0  0  0
   35.2473  -11.9808   36.1928 C   0  0  0  0  0  0  0  0  0  0  0  0
   34.4402  -12.1445   37.2993 C   0  0  0  0  0  0  0  0  0  0  0  0
   34.1269  -13.4659   37.3799 C   0  0  0  0  0  0  0  0  0  0  0  0
   34.7473  -14.0821   36.3235 C   0  0  0  0  0  0  0  0  0  0  0  0
   35.3896  -13.1604   35.6621 O   0  0  0  0  0  0  0  0  0  0  0  0
   34.9745   -9.5168   36.2060 C   0  0  0  0  0  0  0  0  0  0  0  0
   35.8338  -10.6752   35.7185 C   0  0  0  0  0  0  0  0  0  0  0  0
   36.9855  -18.4451   35.7544 N   0  0  0  0  0  0  0  0  0  0  0  0
   37.3567  -18.8693   34.8818 H   0  0  0  0  0  0  0  0  0  0  0  0
   37.7447  -18.7388   36.9578 C   0  0  0  0  0  0  0  0  0  0  0  0
   39.1934  -18.9999   36.5786 C   0  0  0  0  0  0  0  0  0  0  0  0
   39.5166  -20.4488   36.4363 C   0  0  0  0  0  0  0  0  0  0  0  0
   38.4447  -21.2667   35.9487 N   0  0  0  0  0  0  0  0  0  0  0  0
   38.8681  -22.6665   36.0807 C   0  0  0  0  0  0  0  0  0  0  0  0
   37.2161  -21.1386   36.6685 C   0  0  0  0  0  0  0  0  0  0  0  0
   37.2453  -19.9903   37.6577 C   0  0  0  0  0  0  0  0  0  0  0  0
   33.0392  -21.4149   34.4707 O   0  0  0  0  0  0  0  0  0  0  0  0
   32.7928  -22.3032   35.5426 C   0  0  0  0  0  0  0  0  0  0  0  0
   30.8399  -19.8096   34.4411 O   0  0  0  0  0  0  0  0  0  0  0  0
   29.8349  -19.8186   35.4223 C   0  0  0  0  0  0  0  0  0  0  0  0
   29.2099  -21.1723   35.6089 C   0  0  0  0  0  0  0  0  0  0  0  0
   29.4078  -21.6963   37.0161 C   0  0  0  0  0  0  0  0  0  0  0  0
   28.8214  -23.0124   37.1801 N   0  0  0  0  0  0  0  0  0  0  0  0
   27.6918  -23.1368   36.2827 C   0  0  0  0  0  0  0  0  0  0  0  0
   27.6509  -24.5876   35.8568 C   0  0  0  0  0  0  0  0  0  0  0  0
   29.1263  -24.9125   35.7652 C   0  0  0  0  0  0  0  0  0  0  0  0
   29.8018  -23.9827   36.7377 C   0  0  0  0  0  0  0  0  0  0  0  0
 16 17  1  0  0  0
 17 11  1  0  0  0
 11 12  2  0  0  0
 12 13  1  0  0  0
 13 14  2  0  0  0
 14 15  1  0  0  0
 14  1  1  0  0  0
  1  2  2  0  0  0
  2  3  1  0  0  0
  3 18  1  0  0  0
 18 20  1  0  0  0
 20 21  1  0  0  0
 21 22  1  0  0  0
 22 23  1  0  0  0
 23 24  1  0  0  0
 23 25  1  0  0  0
 25 26  1  0  0  0
  3  4  2  0  0  0
  4  5  1  0  0  0
  5  6  2  0  0  0
  6 27  1  0  0  0
 27 28  1  0  0  0
  6  7  1  0  0  0
  7 29  1  0  0  0
 29 30  1  0  0  0
 30 31  1  0  0  0
 31 32  1  0  0  0
 32 33  1  0  0  0
 33 34  1  0  0  0
 34 35  1  0  0  0
 35 36  1  0  0  0
 36 37  1  0  0  0
  7  8  2  0  0  0
  8  9  1  0  0  0
  9 10  2  0  0  0
 15 11  1  0  0  0
 10  1  1  0  0  0
 26 20  1  0  0  0
  9  4  1  0  0  0
 37 33  1  0  0  0
 18 19  1  0  0  0
M  END
> <minimizedAffinity>
-5.97047

> <CNNscore>
0.2959899008

> <CNNaffinity>
6.0175027847

> <CNN_VS>
1.7811200619

> <CNNaffinity_variance>
0.2113051713

$$$$
[H]c1c(-c2nc3c([H])c(OC([H])([H])C([H])([H])C([H])([H])N4C([H])([H])C([H])([H])C([H])([H])C4([H])[H])c(OC([H])([H])[H])c([H])c3c(N([H])C3([H])C([H])([H])C([H])([H])N(C([H])([H])[H])C([H])([H])C3([H])[H])c2[H])oc(C([H])([H])C([H])([H])[H])c1[H]


 37 41  0  0  0  0  0  0  0  0999 V2000
   36.4144  -17.3448   37.0582 C   0  0  0  0  0  0  0  0  0  0  0  0
   37.3840  -17.8163   36.1942 C   0  0  0  0  0  0  0  0  0  0  0  0
   37.7323  -19.1492   36.1223 C   0  0  0  0  0  0  0  0  0  0  0  0
   37.0514  -20.0025   36.9704 C   0  0  0  0  0  0  0  0  0  0  0  0
   37.2785  -21.3615   37.0237 C   0  0  0  0  0  0  0  0  0  0  0  0
   36.5941  -22.2188   37.8771 C   0  0  0  0  0  0  0  0  0  0  0  0
   35.6390  -21.7004   38.7171 C   0  0  0  0  0  0  0  0  0  0  0  0
   35.3742  -20.3483   38.7025 C   0  0  0  0  0  0  0  0  0  0  0  0
   36.0687  -19.5479   37.8508 C   0  0  0  0  0  0  0  0  0  0  0  0
   35.8037  -18.2353   37.8452 N   0  0  0  0  0  0  0  0  0  0  0  0
   34.9721  -14.0723   36.8594 C   0  0  0  0  0  0  0  0  0  0  0  0
   36.1849  -13.7551   37.4346 C   0  0  0  0  0  0  0  0  0  0  0  0
   36.8777  -14.9163   37.5847 C   0  0  0  0  0  0  0  0  0  0  0  0
   36.0763  -15.9177   37.0993 C   0  0  0  0  0  0  0  0  0  0  0  0
   34.9711  -15.3622   36.6876 O   0  0  0  0  0  0  0  0  0  0  0  0
   33.6570  -12.1348   37.6738 C   0  0  0  0  0  0  0  0  0  0  0  0
   33.8817  -13.0909   36.5104 C   0  0  0  0  0  0  0  0  0  0  0  0
   38.7103  -19.6516   35.2313 N   0  0  0  0  0  0  0  0  0  0  0  0
   38.4876  -20.4015   34.5477 H   0  0  0  0  0  0  0  0  0  0  0  0
   40.0801  -19.1685   35.1967 C   0  0  0  0  0  0  0  0  0  0  0  0
   40.4729  -18.8950   33.7539 C   0  0  0  0  0  0  0  0  0  0  0  0
   41.2186  -20.0200   33.1196 C   0  0  0  0  0  0  0  0  0  0  0  0
   40.8444  -21.3289   33.5698 N   0  0  0  0  0  0  0  0  0  0  0  0
   41.8158  -22.2776   33.0107 C   0  0  0  0  0  0  0  0  0  0  0  0
   40.8665  -21.5052   34.9883 C   0  0  0  0  0  0  0  0  0  0  0  0
   41.0627  -20.1967   35.7283 C   0  0  0  0  0  0  0  0  0  0  0  0
   36.8591  -23.5906   37.8956 O   0  0  0  0  0  0  0  0  0  0  0  0
   38.1484  -23.9940   38.3124 C   0  0  0  0  0  0  0  0  0  0  0  0
   34.9635  -22.5734   39.5650 O   0  0  0  0  0  0  0  0  0  0  0  0
   33.7697  -22.1278   40.1558 C   0  0  0  0  0  0  0  0  0  0  0  0
   33.3317  -22.9843   41.3102 C   0  0  0  0  0  0  0  0  0  0  0  0
   32.4521  -22.2203   42.2780 C   0  0  0  0  0  0  0  0  0  0  0  0
   31.0458  -22.4033   41.9753 N   0  0  0  0  0  0  0  0  0  0  0  0
   30.8204  -23.7879   41.6163 C   0  0  0  0  0  0  0  0  0  0  0  0
   29.4331  -24.1304   42.1123 C   0  0  0  0  0  0  0  0  0  0  0  0
   29.3745  -23.3401   43.4018 C   0  0  0  0  0  0  0  0  0  0  0  0
   30.3050  -22.1741   43.1989 C   0  0  0  0  0  0  0  0  0  0  0  0
 16 17  1  0  0  0
 17 11  1  0  0  0
 11 12  2  0  0  0
 12 13  1  0  0  0
 13 14  2  0  0  0
 14 15  1  0  0  0
 14  1  1  0  0  0
  1  2  2  0  0  0
  2  3  1  0  0  0
  3 18  1  0  0  0
 18 20  1  0  0  0
 20 21  1  0  0  0
 21 22  1  0  0  0
 22 23  1  0  0  0
 23 24  1  0  0  0
 23 25  1  0  0  0
 25 26  1  0  0  0
  3  4  2  0  0  0
  4  5  1  0  0  0
  5  6  2  0  0  0
  6 27  1  0  0  0
 27 28  1  0  0  0
  6  7  1  0  0  0
  7 29  1  0  0  0
 29 30  1  0  0  0
 30 31  1  0  0  0
 31 32  1  0  0  0
 32 33  1  0  0  0
 33 34  1  0  0  0
 34 35  1  0  0  0
 35 36  1  0  0  0
 36 37  1  0  0  0
  7  8  2  0  0  0
  8  9  1  0  0  0
  9 10  2  0  0  0
 15 11  1  0  0  0
 10  1  1  0  0  0
 26 20  1  0  0  0
  9  4  1  0  0  0
 37 33  1  0  0  0
 18 19  1  0  0  0
M  END
> <minimizedAffinity>
-5.48847

> <CNNscore>
0.2929971516

> <CNNaffinity>
5.8233628273

> <CNN_VS>
1.7062287331

> <CNNaffinity_variance>
0.0494230278

$$$$
[H]c1c([H])c([H])c(C([H])([H])[H])c(-c2nc3c([H])c(OC([H])([H])C([H])([H])C([H])([H])N4C([H])([H])C([H])([H])C([H])([H])C4([H])[H])c(OC([H])([H])[H])c([H])c3c(N([H])C3([H])C([H])([H])C([H])([H])N(C([H])([H])[H])C([H])([H])C3([H])[H])c2[H])c1[H]


 37 41  0  0  0  0  0  0  0  0999 V2000
   36.1800  -21.7855   37.2985 C   0  0  0  0  0  0  0  0  0  0  0  0
   37.0960  -20.8079   36.8953 C   0  0  0  0  0  0  0  0  0  0  0  0
   36.7223  -19.4848   36.8125 C   0  0  0  0  0  0  0  0  0  0  0  0
   37.5723  -18.4758   36.4258 C   0  0  0  0  0  0  0  0  0  0  0  0
   37.0893  -17.1670   36.3779 C   0  0  0  0  0  0  0  0  0  0  0  0
   35.7865  -16.8639   36.7090 C   0  0  0  0  0  0  0  0  0  0  0  0
   35.0288  -17.9046   37.0741 N   0  0  0  0  0  0  0  0  0  0  0  0
   35.3985  -19.1728   37.1478 C   0  0  0  0  0  0  0  0  0  0  0  0
   34.4949  -20.1489   37.5475 C   0  0  0  0  0  0  0  0  0  0  0  0
   34.8753  -21.4558   37.6258 C   0  0  0  0  0  0  0  0  0  0  0  0
   35.2849  -15.4961   36.6647 C   0  0  0  0  0  0  0  0  0  0  0  0
   34.0761  -15.1954   36.0707 C   0  0  0  0  0  0  0  0  0  0  0  0
   33.5472  -13.9052   35.9947 C   0  0  0  0  0  0  0  0  0  0  0  0
   34.2388  -12.8507   36.5297 C   0  0  0  0  0  0  0  0  0  0  0  0
   35.4402  -13.1304   37.1233 C   0  0  0  0  0  0  0  0  0  0  0  0
   35.9767  -14.4282   37.2019 C   0  0  0  0  0  0  0  0  0  0  0  0
   37.2949  -14.6274   37.8682 C   0  0  0  0  0  0  0  0  0  0  0  0
   37.9751  -23.4227   37.2921 C   0  0  0  0  0  0  0  0  0  0  0  0
   36.6229  -23.0867   37.3574 O   0  0  0  0  0  0  0  0  0  0  0  0
   38.8962  -18.7756   36.0569 N   0  0  0  0  0  0  0  0  0  0  0  0
   39.6641  -18.9988   36.7447 H   0  0  0  0  0  0  0  0  0  0  0  0
   39.2908  -18.8031   34.6562 C   0  0  0  0  0  0  0  0  0  0  0  0
   40.7738  -18.8631   34.5296 C   0  0  0  0  0  0  0  0  0  0  0  0
   41.1305  -19.4876   33.1923 C   0  0  0  0  0  0  0  0  0  0  0  0
   40.8099  -20.8869   33.1651 N   0  0  0  0  0  0  0  0  0  0  0  0
   41.9363  -21.6712   33.6283 C   0  0  0  0  0  0  0  0  0  0  0  0
   39.6692  -21.2011   34.0012 C   0  0  0  0  0  0  0  0  0  0  0  0
   38.7212  -20.0159   33.9456 C   0  0  0  0  0  0  0  0  0  0  0  0
   34.0368  -22.4872   38.0147 O   0  0  0  0  0  0  0  0  0  0  0  0
   32.6397  -22.3700   38.1298 C   0  0  0  0  0  0  0  0  0  0  0  0
   32.0790  -22.5917   36.7181 C   0  0  0  0  0  0  0  0  0  0  0  0
   31.1789  -21.4178   36.4293 C   0  0  0  0  0  0  0  0  0  0  0  0
   31.5391  -20.6679   35.2799 N   0  0  0  0  0  0  0  0  0  0  0  0
   32.6278  -21.1744   34.5183 C   0  0  0  0  0  0  0  0  0  0  0  0
   33.2479  -19.9969   33.8038 C   0  0  0  0  0  0  0  0  0  0  0  0
   32.6747  -18.7560   34.4406 C   0  0  0  0  0  0  0  0  0  0  0  0
   31.7152  -19.2672   35.4935 C   0  0  0  0  0  0  0  0  0  0  0  0
 18 19  1  0  0  0
 19  1  1  0  0  0
  1  2  2  0  0  0
  2  3  1  0  0  0
  3  4  2  0  0  0
  4 20  1  0  0  0
 20 22  1  0  0  0
 22 23  1  0  0  0
 23 24  1  0  0  0
 24 25  1  0  0  0
 25 26  1  0  0  0
 25 27  1  0  0  0
 27 28  1  0  0  0
  4  5  1  0  0  0
  5  6  2  0  0  0
  6  7  1  0  0  0
  7  8  2  0  0  0
  8  9  1  0  0  0
  9 10  2  0  0  0
 10 29  1  0  0  0
 29 30  1  0  0  0
 30 31  1  0  0  0
 31 32  1  0  0  0
 32 33  1  0  0  0
 33 34  1  0  0  0
 34 35  1  0  0  0
 35 36  1  0  0  0
 36 37  1  0  0  0
  6 11  1  0  0  0
 11 12  2  0  0  0
 12 13  1  0  0  0
 13 14  2  0  0  0
 14 15  1  0  0  0
 15 16  2  0  0  0
 16 17  1  0  0  0
 10  1  1  0  0  0
 37 33  1  0  0  0
 16 11  1  0  0  0
  8  3  1  0  0  0
 28 22  1  0  0  0
 20 21  1  0  0  0
M  END
> <minimizedAffinity>
-7.25699

> <CNNscore>
0.6077035069

> <CNNaffinity>
6.5054359436

> <CNN_VS>
3.9533762932

> <CNNaffinity_variance>
0.2902408242

$$$$
[H]c1c([H])c([H])c(C([H])([H])[H])c(-c2nc3c([H])c(OC([H])([H])C([H])([H])C([H])([H])N4C([H])([H])C([H])([H])C([H])([H])C4([H])[H])c(OC([H])([H])[H])c([H])c3c(N([H])C3([H])C([H])([H])C([H])([H])N(C([H])([H])[H])C([H])([H])C3([H])[H])c2[H])c1[H]


 37 41  0  0  0  0  0  0  0  0999 V2000
   36.1669  -14.3142   36.6643 C   0  0  0  0  0  0  0  0  0  0  0  0
   36.8392  -15.5407   36.6325 C   0  0  0  0  0  0  0  0  0  0  0  0
   36.1538  -16.7132   36.4036 C   0  0  0  0  0  0  0  0  0  0  0  0
   36.7532  -17.9496   36.3579 C   0  0  0  0  0  0  0  0  0  0  0  0
   35.9631  -19.0748   36.1170 C   0  0  0  0  0  0  0  0  0  0  0  0
   34.6024  -18.9755   35.9235 C   0  0  0  0  0  0  0  0  0  0  0  0
   34.1018  -17.7361   35.9841 N   0  0  0  0  0  0  0  0  0  0  0  0
   34.7703  -16.6164   36.2070 C   0  0  0  0  0  0  0  0  0  0  0  0
   34.1098  -15.3950   36.2397 C   0  0  0  0  0  0  0  0  0  0  0  0
   34.7980  -14.2403   36.4673 C   0  0  0  0  0  0  0  0  0  0  0  0
   33.7791  -20.1503   35.6659 C   0  0  0  0  0  0  0  0  0  0  0  0
   33.7992  -21.2391   36.5136 C   0  0  0  0  0  0  0  0  0  0  0  0
   33.0364  -22.3920   36.3160 C   0  0  0  0  0  0  0  0  0  0  0  0
   32.2077  -22.4851   35.2292 C   0  0  0  0  0  0  0  0  0  0  0  0
   32.1749  -21.4141   34.3773 C   0  0  0  0  0  0  0  0  0  0  0  0
   32.9415  -20.2511   34.5722 C   0  0  0  0  0  0  0  0  0  0  0  0
   32.8355  -19.1401   33.5844 C   0  0  0  0  0  0  0  0  0  0  0  0
   38.2144  -13.2361   37.4048 C   0  0  0  0  0  0  0  0  0  0  0  0
   36.9155  -13.1841   36.8989 O   0  0  0  0  0  0  0  0  0  0  0  0
   38.1367  -18.0682   36.5831 N   0  0  0  0  0  0  0  0  0  0  0  0
   38.7172  -17.3434   37.0835 H   0  0  0  0  0  0  0  0  0  0  0  0
   38.8671  -19.2425   36.1291 C   0  0  0  0  0  0  0  0  0  0  0  0
   39.2692  -19.0917   34.7027 C   0  0  0  0  0  0  0  0  0  0  0  0
   40.4839  -19.9632   34.4373 C   0  0  0  0  0  0  0  0  0  0  0  0
   41.6524  -19.4477   35.0932 N   0  0  0  0  0  0  0  0  0  0  0  0
   42.3508  -18.5221   34.2250 C   0  0  0  0  0  0  0  0  0  0  0  0
   41.3258  -18.7525   36.3217 C   0  0  0  0  0  0  0  0  0  0  0  0
   40.1303  -19.4553   36.9409 C   0  0  0  0  0  0  0  0  0  0  0  0
   34.2151  -12.9849   36.5153 O   0  0  0  0  0  0  0  0  0  0  0  0
   33.9280  -12.2912   37.7049 C   0  0  0  0  0  0  0  0  0  0  0  0
   32.5289  -12.7527   38.1364 C   0  0  0  0  0  0  0  0  0  0  0  0
   31.5786  -12.2893   37.0623 C   0  0  0  0  0  0  0  0  0  0  0  0
   30.3010  -11.8940   37.5364 N   0  0  0  0  0  0  0  0  0  0  0  0
   30.0399  -10.4963   37.5397 C   0  0  0  0  0  0  0  0  0  0  0  0
   29.0067  -10.2462   38.6128 C   0  0  0  0  0  0  0  0  0  0  0  0
   28.9295  -11.5057   39.4384 C   0  0  0  0  0  0  0  0  0  0  0  0
   29.9126  -12.4563   38.7900 C   0  0  0  0  0  0  0  0  0  0  0  0
 18 19  1  0  0  0
 19  1  1  0  0  0
  1  2  2  0  0  0
  2  3  1  0  0  0
  3  4  2  0  0  0
  4 20  1  0  0  0
 20 22  1  0  0  0
 22 23  1  0  0  0
 23 24  1  0  0  0
 24 25  1  0  0  0
 25 26  1  0  0  0
 25 27  1  0  0  0
 27 28  1  0  0  0
  4  5  1  0  0  0
  5  6  2  0  0  0
  6  7  1  0  0  0
  7  8  2  0  0  0
  8  9  1  0  0  0
  9 10  2  0  0  0
 10 29  1  0  0  0
 29 30  1  0  0  0
 30 31  1  0  0  0
 31 32  1  0  0  0
 32 33  1  0  0  0
 33 34  1  0  0  0
 34 35  1  0  0  0
 35 36  1  0  0  0
 36 37  1  0  0  0
  6 11  1  0  0  0
 11 12  2  0  0  0
 12 13  1  0  0  0
 13 14  2  0  0  0
 14 15  1  0  0  0
 15 16  2  0  0  0
 16 17  1  0  0  0
 10  1  1  0  0  0
 37 33  1  0  0  0
 16 11  1  0  0  0
  8  3  1  0  0  0
 28 22  1  0  0  0
 20 21  1  0  0  0
M  END
> <minimizedAffinity>
-8.46313

> <CNNscore>
0.5998988152

> <CNNaffinity>
6.9474258423

> <CNN_VS>
4.1677527428

> <CNNaffinity_variance>
0.0341381356

$$$$
[H]c1c([H])c([H])c(C([H])([H])[H])c(-c2nc3c([H])c(OC([H])([H])C([H])([H])C([H])([H])N4C([H])([H])C([H])([H])C([H])([H])C4([H])[H])c(OC([H])([H])[H])c([H])c3c(N([H])C3([H])C([H])([H])C([H])([H])N(C([H])([H])[H])C([H])([H])C3([H])[H])c2[H])c1[H]


 37 41  0  0  0  0  0  0  0  0999 V2000
   36.1783  -14.9548   36.4207 C   0  0  0  0  0  0  0  0  0  0  0  0
   36.7826  -16.2165   36.4345 C   0  0  0  0  0  0  0  0  0  0  0  0
   36.0324  -17.3580   36.2576 C   0  0  0  0  0  0  0  0  0  0  0  0
   36.5633  -18.6262   36.2584 C   0  0  0  0  0  0  0  0  0  0  0  0
   35.7110  -19.7152   36.0683 C   0  0  0  0  0  0  0  0  0  0  0  0
   34.3562  -19.5495   35.8793 C   0  0  0  0  0  0  0  0  0  0  0  0
   33.9243  -18.2831   35.8926 N   0  0  0  0  0  0  0  0  0  0  0  0
   34.6547  -17.1935   36.0658 C   0  0  0  0  0  0  0  0  0  0  0  0
   34.0620  -15.9375   36.0530 C   0  0  0  0  0  0  0  0  0  0  0  0
   34.8139  -14.8140   36.2294 C   0  0  0  0  0  0  0  0  0  0  0  0
   33.4680  -20.6868   35.6746 C   0  0  0  0  0  0  0  0  0  0  0  0
   33.5164  -21.7913   36.5006 C   0  0  0  0  0  0  0  0  0  0  0  0
   32.6944  -22.9103   36.3509 C   0  0  0  0  0  0  0  0  0  0  0  0
   31.7738  -22.9511   35.3374 C   0  0  0  0  0  0  0  0  0  0  0  0
   31.7116  -21.8638   34.5080 C   0  0  0  0  0  0  0  0  0  0  0  0
   32.5376  -20.7349   34.6549 C   0  0  0  0  0  0  0  0  0  0  0  0
   32.3926  -19.6023   33.6971 C   0  0  0  0  0  0  0  0  0  0  0  0
   37.8035  -13.7078   37.7271 C   0  0  0  0  0  0  0  0  0  0  0  0
   36.9893  -13.8588   36.6046 O   0  0  0  0  0  0  0  0  0  0  0  0
   37.9401  -18.8112   36.4796 N   0  0  0  0  0  0  0  0  0  0  0  0
   38.3658  -18.9960   37.4269 H   0  0  0  0  0  0  0  0  0  0  0  0
   38.8848  -18.7642   35.3734 C   0  0  0  0  0  0  0  0  0  0  0  0
   40.2560  -19.1140   35.8389 C   0  0  0  0  0  0  0  0  0  0  0  0
   41.0557  -19.6467   34.6632 C   0  0  0  0  0  0  0  0  0  0  0  0
   40.5836  -20.9381   34.2501 N   0  0  0  0  0  0  0  0  0  0  0  0
   41.2828  -21.9839   34.9682 C   0  0  0  0  0  0  0  0  0  0  0  0
   39.1638  -21.1012   34.4884 C   0  0  0  0  0  0  0  0  0  0  0  0
   38.5070  -19.7474   34.2822 C   0  0  0  0  0  0  0  0  0  0  0  0
   34.3006  -13.5277   36.2300 O   0  0  0  0  0  0  0  0  0  0  0  0
   32.9702  -13.2072   36.5558 C   0  0  0  0  0  0  0  0  0  0  0  0
   33.0389  -12.3751   37.8439 C   0  0  0  0  0  0  0  0  0  0  0  0
   31.9869  -11.3036   37.7142 C   0  0  0  0  0  0  0  0  0  0  0  0
   30.6536  -11.7877   37.6813 N   0  0  0  0  0  0  0  0  0  0  0  0
   29.6507  -10.8366   37.3478 C   0  0  0  0  0  0  0  0  0  0  0  0
   28.3642  -11.3180   37.9762 C   0  0  0  0  0  0  0  0  0  0  0  0
   28.7412  -12.4059   38.9500 C   0  0  0  0  0  0  0  0  0  0  0  0
   30.2444  -12.5322   38.8288 C   0  0  0  0  0  0  0  0  0  0  0  0
 18 19  1  0  0  0
 19  1  1  0  0  0
  1  2  2  0  0  0
  2  3  1  0  0  0
  3  4  2  0  0  0
  4 20  1  0  0  0
 20 22  1  0  0  0
 22 23  1  0  0  0
 23 24  1  0  0  0
 24 25  1  0  0  0
 25 26  1  0  0  0
 25 27  1  0  0  0
 27 28  1  0  0  0
  4  5  1  0  0  0
  5  6  2  0  0  0
  6  7  1  0  0  0
  7  8  2  0  0  0
  8  9  1  0  0  0
  9 10  2  0  0  0
 10 29  1  0  0  0
 29 30  1  0  0  0
 30 31  1  0  0  0
 31 32  1  0  0  0
 32 33  1  0  0  0
 33 34  1  0  0  0
 34 35  1  0  0  0
 35 36  1  0  0  0
 36 37  1  0  0  0
  6 11  1  0  0  0
 11 12  2  0  0  0
 12 13  1  0  0  0
 13 14  2  0  0  0
 14 15  1  0  0  0
 15 16  2  0  0  0
 16 17  1  0  0  0
 10  1  1  0  0  0
 37 33  1  0  0  0
 16 11  1  0  0  0
  8  3  1  0  0  0
 28 22  1  0  0  0
 20 21  1  0  0  0
M  END
> <minimizedAffinity>
-7.99161

> <CNNscore>
0.5638385415

> <CNNaffinity>
6.7841138840

> <CNN_VS>
3.8251447678

> <CNNaffinity_variance>
0.0638402328

$$$$
[H]c1c([H])c([H])c(C([H])([H])[H])c(-c2nc3c([H])c(OC([H])([H])C([H])([H])C([H])([H])N4C([H])([H])C([H])([H])C([H])([H])C4([H])[H])c(OC([H])([H])[H])c([H])c3c(N([H])C3([H])C([H])([H])C([H])([H])N(C([H])([H])[H])C([H])([H])C3([H])[H])c2[H])c1[H]


 37 41  0  0  0  0  0  0  0  0999 V2000
   36.2235  -14.2214   36.6577 C   0  0  0  0  0  0  0  0  0  0  0  0
   36.8664  -15.4636   36.6333 C   0  0  0  0  0  0  0  0  0  0  0  0
   36.1609  -16.6160   36.3660 C   0  0  0  0  0  0  0  0  0  0  0  0
   36.7312  -17.8663   36.3251 C   0  0  0  0  0  0  0  0  0  0  0  0
   35.9226  -18.9685   36.0429 C   0  0  0  0  0  0  0  0  0  0  0  0
   34.5723  -18.8332   35.8041 C   0  0  0  0  0  0  0  0  0  0  0  0
   34.1003  -17.5826   35.8633 N   0  0  0  0  0  0  0  0  0  0  0  0
   34.7878  -16.4825   36.1233 C   0  0  0  0  0  0  0  0  0  0  0  0
   34.1566  -15.2456   36.1491 C   0  0  0  0  0  0  0  0  0  0  0  0
   34.8645  -14.1111   36.4149 C   0  0  0  0  0  0  0  0  0  0  0  0
   33.7299  -19.9840   35.5034 C   0  0  0  0  0  0  0  0  0  0  0  0
   33.1966  -20.1719   34.2446 C   0  0  0  0  0  0  0  0  0  0  0  0
   32.3808  -21.2515   33.8994 C   0  0  0  0  0  0  0  0  0  0  0  0
   32.0698  -22.2001   34.8374 C   0  0  0  0  0  0  0  0  0  0  0  0
   32.5903  -22.0300   36.0920 C   0  0  0  0  0  0  0  0  0  0  0  0
   33.4121  -20.9442   36.4441 C   0  0  0  0  0  0  0  0  0  0  0  0
   33.9275  -20.8489   37.8393 C   0  0  0  0  0  0  0  0  0  0  0  0
   38.2519  -13.2009   37.5222 C   0  0  0  0  0  0  0  0  0  0  0  0
   36.9909  -13.1130   36.9323 O   0  0  0  0  0  0  0  0  0  0  0  0
   38.1028  -18.0218   36.5960 N   0  0  0  0  0  0  0  0  0  0  0  0
   38.6790  -17.3263   37.1409 H   0  0  0  0  0  0  0  0  0  0  0  0
   38.8253  -19.1962   36.1300 C   0  0  0  0  0  0  0  0  0  0  0  0
   39.2102  -19.0423   34.6992 C   0  0  0  0  0  0  0  0  0  0  0  0
   40.4200  -19.9154   34.4166 C   0  0  0  0  0  0  0  0  0  0  0  0
   41.5974  -19.4038   35.0596 N   0  0  0  0  0  0  0  0  0  0  0  0
   42.2868  -18.4771   34.1854 C   0  0  0  0  0  0  0  0  0  0  0  0
   41.2871  -18.7112   36.2938 C   0  0  0  0  0  0  0  0  0  0  0  0
   40.0979  -19.4136   36.9257 C   0  0  0  0  0  0  0  0  0  0  0  0
   34.3110  -12.8423   36.4589 O   0  0  0  0  0  0  0  0  0  0  0  0
   34.0584  -12.1305   37.6456 C   0  0  0  0  0  0  0  0  0  0  0  0
   32.6817  -12.6006   38.1358 C   0  0  0  0  0  0  0  0  0  0  0  0
   31.7179  -12.3440   37.0057 C   0  0  0  0  0  0  0  0  0  0  0  0
   30.4426  -11.8748   37.4140 N   0  0  0  0  0  0  0  0  0  0  0  0
   30.2602  -10.4647   37.3978 C   0  0  0  0  0  0  0  0  0  0  0  0
   29.1909  -10.1497   38.4171 C   0  0  0  0  0  0  0  0  0  0  0  0
   29.0028  -11.3968   39.2437 C   0  0  0  0  0  0  0  0  0  0  0  0
   29.9621  -12.4053   38.6493 C   0  0  0  0  0  0  0  0  0  0  0  0
 18 19  1  0  0  0
 19  1  1  0  0  0
  1  2  2  0  0  0
  2  3  1  0  0  0
  3  4  2  0  0  0
  4 20  1  0  0  0
 20 22  1  0  0  0
 22 23  1  0  0  0
 23 24  1  0  0  0
 24 25  1  0  0  0
 25 26  1  0  0  0
 25 27  1  0  0  0
 27 28  1  0  0  0
  4  5  1  0  0  0
  5  6  2  0  0  0
  6  7  1  0  0  0
  7  8  2  0  0  0
  8  9  1  0  0  0
  9 10  2  0  0  0
 10 29  1  0  0  0
 29 30  1  0  0  0
 30 31  1  0  0  0
 31 32  1  0  0  0
 32 33  1  0  0  0
 33 34  1  0  0  0
 34 35  1  0  0  0
 35 36  1  0  0  0
 36 37  1  0  0  0
  6 11  1  0  0  0
 11 12  2  0  0  0
 12 13  1  0  0  0
 13 14  2  0  0  0
 14 15  1  0  0  0
 15 16  2  0  0  0
 16 17  1  0  0  0
 10  1  1  0  0  0
 37 33  1  0  0  0
 16 11  1  0  0  0
  8  3  1  0  0  0
 28 22  1  0  0  0
 20 21  1  0  0  0
M  END
> <minimizedAffinity>
-8.68954

> <CNNscore>
0.5402404666

> <CNNaffinity>
6.8754401207

> <CNN_VS>
3.7143909931

> <CNNaffinity_variance>
0.0432551801

$$$$
[H]c1c([H])c([H])c(C([H])([H])[H])c(-c2nc3c([H])c(OC([H])([H])C([H])([H])C([H])([H])N4C([H])([H])C([H])([H])C([H])([H])C4([H])[H])c(OC([H])([H])[H])c([H])c3c(N([H])C3([H])C([H])([H])C([H])([H])N(C([H])([H])[H])C([H])([H])C3([H])[H])c2[H])c1[H]


 37 41  0  0  0  0  0  0  0  0999 V2000
   36.0987  -14.6421   36.2685 C   0  0  0  0  0  0  0  0  0  0  0  0
   36.7339  -15.8680   36.0427 C   0  0  0  0  0  0  0  0  0  0  0  0
   36.0001  -17.0243   35.8963 C   0  0  0  0  0  0  0  0  0  0  0  0
   36.5609  -18.2592   35.6709 C   0  0  0  0  0  0  0  0  0  0  0  0
   35.7228  -19.3672   35.5360 C   0  0  0  0  0  0  0  0  0  0  0  0
   34.3523  -19.2526   35.6218 C   0  0  0  0  0  0  0  0  0  0  0  0
   33.8913  -18.0159   35.8423 N   0  0  0  0  0  0  0  0  0  0  0  0
   34.6066  -16.9119   35.9835 C   0  0  0  0  0  0  0  0  0  0  0  0
   33.9831  -15.6912   36.2076 C   0  0  0  0  0  0  0  0  0  0  0  0
   34.7191  -14.5526   36.3513 C   0  0  0  0  0  0  0  0  0  0  0  0
   33.4777  -20.4091   35.4746 C   0  0  0  0  0  0  0  0  0  0  0  0
   32.9077  -20.7260   34.2584 C   0  0  0  0  0  0  0  0  0  0  0  0
   32.0600  -21.8176   34.0583 C   0  0  0  0  0  0  0  0  0  0  0  0
   31.7530  -22.6452   35.1057 C   0  0  0  0  0  0  0  0  0  0  0  0
   32.3096  -22.3462   36.3200 C   0  0  0  0  0  0  0  0  0  0  0  0
   33.1637  -21.2478   36.5262 C   0  0  0  0  0  0  0  0  0  0  0  0
   33.7173  -21.0070   37.8888 C   0  0  0  0  0  0  0  0  0  0  0  0
   37.8148  -13.3875   37.4448 C   0  0  0  0  0  0  0  0  0  0  0  0
   36.8950  -13.5286   36.4057 O   0  0  0  0  0  0  0  0  0  0  0  0
   37.9598  -18.3947   35.6106 N   0  0  0  0  0  0  0  0  0  0  0  0
   38.5642  -17.9495   34.8695 H   0  0  0  0  0  0  0  0  0  0  0  0
   38.6757  -19.1775   36.6072 C   0  0  0  0  0  0  0  0  0  0  0  0
   37.7216  -19.8297   37.5470 C   0  0  0  0  0  0  0  0  0  0  0  0
   38.3808  -21.0597   38.1455 C   0  0  0  0  0  0  0  0  0  0  0  0
   38.5353  -22.0997   37.1678 N   0  0  0  0  0  0  0  0  0  0  0  0
   37.3662  -22.9549   37.1525 C   0  0  0  0  0  0  0  0  0  0  0  0
   38.7216  -21.5692   35.8325 C   0  0  0  0  0  0  0  0  0  0  0  0
   39.5020  -20.2725   35.9604 C   0  0  0  0  0  0  0  0  0  0  0  0
   34.1752  -13.2990   36.5766 O   0  0  0  0  0  0  0  0  0  0  0  0
   32.7947  -13.0337   36.6290 C   0  0  0  0  0  0  0  0  0  0  0  0
   32.5642  -12.2472   37.9271 C   0  0  0  0  0  0  0  0  0  0  0  0
   31.4408  -11.2826   37.6455 C   0  0  0  0  0  0  0  0  0  0  0  0
   30.1427  -11.8493   37.7288 N   0  0  0  0  0  0  0  0  0  0  0  0
   29.0576  -10.9692   37.4645 C   0  0  0  0  0  0  0  0  0  0  0  0
   27.8593  -11.5172   38.2029 C   0  0  0  0  0  0  0  0  0  0  0  0
   28.3819  -12.5599   39.1586 C   0  0  0  0  0  0  0  0  0  0  0  0
   29.8756  -12.5949   38.9168 C   0  0  0  0  0  0  0  0  0  0  0  0
 18 19  1  0  0  0
 19  1  1  0  0  0
  1  2  2  0  0  0
  2  3  1  0  0  0
  3  4  2  0  0  0
  4 20  1  0  0  0
 20 22  1  0  0  0
 22 23  1  0  0  0
 23 24  1  0  0  0
 24 25  1  0  0  0
 25 26  1  0  0  0
 25 27  1  0  0  0
 27 28  1  0  0  0
  4  5  1  0  0  0
  5  6  2  0  0  0
  6  7  1  0  0  0
  7  8  2  0  0  0
  8  9  1  0  0  0
  9 10  2  0  0  0
 10 29  1  0  0  0
 29 30  1  0  0  0
 30 31  1  0  0  0
 31 32  1  0  0  0
 32 33  1  0  0  0
 33 34  1  0  0  0
 34 35  1  0  0  0
 35 36  1  0  0  0
 36 37  1  0  0  0
  6 11  1  0  0  0
 11 12  2  0  0  0
 12 13  1  0  0  0
 13 14  2  0  0  0
 14 15  1  0  0  0
 15 16  2  0  0  0
 16 17  1  0  0  0
 10  1  1  0  0  0
 37 33  1  0  0  0
 16 11  1  0  0  0
  8  3  1  0  0  0
 28 22  1  0  0  0
 20 21  1  0  0  0
M  END
> <minimizedAffinity>
-7.50154

> <CNNscore>
0.5192553401

> <CNNaffinity>
6.7270874977

> <CNN_VS>
3.4930760860

> <CNNaffinity_variance>
0.0978771225

$$$$
[H]c1c([H])c([H])c(C([H])([H])[H])c(-c2nc3c([H])c(OC([H])([H])C([H])([H])C([H])([H])N4C([H])([H])C([H])([H])C([H])([H])C4([H])[H])c(OC([H])([H])[H])c([H])c3c(N([H])C3([H])C([H])([H])C([H])([H])N(C([H])([H])[H])C([H])([H])C3([H])[H])c2[H])c1[H]


 37 41  0  0  0  0  0  0  0  0999 V2000
   38.3512  -20.5031   35.8280 C   0  0  0  0  0  0  0  0  0  0  0  0
   37.0785  -20.1975   35.3339 C   0  0  0  0  0  0  0  0  0  0  0  0
   36.5129  -18.9626   35.5622 C   0  0  0  0  0  0  0  0  0  0  0  0
   35.2690  -18.5979   35.1039 C   0  0  0  0  0  0  0  0  0  0  0  0
   34.7917  -17.3181   35.3917 C   0  0  0  0  0  0  0  0  0  0  0  0
   35.5353  -16.4153   36.1201 C   0  0  0  0  0  0  0  0  0  0  0  0
   36.7331  -16.8520   36.5265 N   0  0  0  0  0  0  0  0  0  0  0  0
   37.2656  -18.0423   36.3028 C   0  0  0  0  0  0  0  0  0  0  0  0
   38.5286  -18.3530   36.7899 C   0  0  0  0  0  0  0  0  0  0  0  0
   39.0791  -19.5786   36.5583 C   0  0  0  0  0  0  0  0  0  0  0  0
   35.0387  -15.0771   36.4149 C   0  0  0  0  0  0  0  0  0  0  0  0
   33.7380  -14.7163   36.1274 C   0  0  0  0  0  0  0  0  0  0  0  0
   33.2083  -13.4498   36.3832 C   0  0  0  0  0  0  0  0  0  0  0  0
   33.9942  -12.4826   36.9520 C   0  0  0  0  0  0  0  0  0  0  0  0
   35.2875  -12.8229   37.2441 C   0  0  0  0  0  0  0  0  0  0  0  0
   35.8253  -14.0970   36.9880 C   0  0  0  0  0  0  0  0  0  0  0  0
   37.2477  -14.3670   37.3420 C   0  0  0  0  0  0  0  0  0  0  0  0
   38.5383  -22.8709   36.3395 C   0  0  0  0  0  0  0  0  0  0  0  0
   38.8529  -21.7562   35.5622 O   0  0  0  0  0  0  0  0  0  0  0  0
   34.4875  -19.5200   34.3844 N   0  0  0  0  0  0  0  0  0  0  0  0
   34.8310  -20.0536   33.5419 H   0  0  0  0  0  0  0  0  0  0  0  0
   33.1165  -19.8042   34.7821 C   0  0  0  0  0  0  0  0  0  0  0  0
   32.6185  -21.0352   34.1070 C   0  0  0  0  0  0  0  0  0  0  0  0
   31.5051  -21.6409   34.9431 C   0  0  0  0  0  0  0  0  0  0  0  0
   32.0117  -22.2005   36.1643 N   0  0  0  0  0  0  0  0  0  0  0  0
   32.3764  -23.5888   35.9695 C   0  0  0  0  0  0  0  0  0  0  0  0
   33.1806  -21.4920   36.6449 C   0  0  0  0  0  0  0  0  0  0  0  0
   33.0106  -20.0279   36.2784 C   0  0  0  0  0  0  0  0  0  0  0  0
   40.3303  -19.9660   37.0083 O   0  0  0  0  0  0  0  0  0  0  0  0
   41.2601  -19.0960   37.6061 C   0  0  0  0  0  0  0  0  0  0  0  0
   41.9426  -18.3486   36.4519 C   0  0  0  0  0  0  0  0  0  0  0  0
   42.9194  -19.3178   35.8368 C   0  0  0  0  0  0  0  0  0  0  0  0
   42.5779  -19.7480   34.5285 N   0  0  0  0  0  0  0  0  0  0  0  0
   41.6142  -18.9592   33.8422 C   0  0  0  0  0  0  0  0  0  0  0  0
   40.9348  -19.8677   32.8448 C   0  0  0  0  0  0  0  0  0  0  0  0
   41.3208  -21.2778   33.2138 C   0  0  0  0  0  0  0  0  0  0  0  0
   42.2392  -21.1297   34.4076 C   0  0  0  0  0  0  0  0  0  0  0  0
 18 19  1  0  0  0
 19  1  1  0  0  0
  1  2  2  0  0  0
  2  3  1  0  0  0
  3  4  2  0  0  0
  4 20  1  0  0  0
 20 22  1  0  0  0
 22 23  1  0  0  0
 23 24  1  0  0  0
 24 25  1  0  0  0
 25 26  1  0  0  0
 25 27  1  0  0  0
 27 28  1  0  0  0
  4  5  1  0  0  0
  5  6  2  0  0  0
  6  7  1  0  0  0
  7  8  2  0  0  0
  8  9  1  0  0  0
  9 10  2  0  0  0
 10 29  1  0  0  0
 29 30  1  0  0  0
 30 31  1  0  0  0
 31 32  1  0  0  0
 32 33  1  0  0  0
 33 34  1  0  0  0
 34 35  1  0  0  0
 35 36  1  0  0  0
 36 37  1  0  0  0
  6 11  1  0  0  0
 11 12  2  0  0  0
 12 13  1  0  0  0
 13 14  2  0  0  0
 14 15  1  0  0  0
 15 16  2  0  0  0
 16 17  1  0  0  0
 10  1  1  0  0  0
 37 33  1  0  0  0
 16 11  1  0  0  0
  8  3  1  0  0  0
 28 22  1  0  0  0
 20 21  1  0  0  0
M  END
> <minimizedAffinity>
-7.36754

> <CNNscore>
0.3859517872

> <CNNaffinity>
6.2504148483

> <CNN_VS>
2.4123587608

> <CNNaffinity_variance>
0.3347564638

$$$$
[H]c1c([H])c([H])c(C([H])([H])[H])c(-c2nc3c([H])c(OC([H])([H])C([H])([H])C([H])([H])N4C([H])([H])C([H])([H])C([H])([H])C4([H])[H])c(OC([H])([H])[H])c([H])c3c(N([H])C3([H])C([H])([H])C([H])([H])N(C([H])([H])[H])C([H])([H])C3([H])[H])c2[H])c1[H]


 37 41  0  0  0  0  0  0  0  0999 V2000
   40.9419  -19.0630   36.6109 C   0  0  0  0  0  0  0  0  0  0  0  0
   39.6894  -18.4410   36.6501 C   0  0  0  0  0  0  0  0  0  0  0  0
   38.5789  -19.1228   37.0961 C   0  0  0  0  0  0  0  0  0  0  0  0
   37.3214  -18.5708   37.1617 C   0  0  0  0  0  0  0  0  0  0  0  0
   36.2646  -19.3520   37.6318 C   0  0  0  0  0  0  0  0  0  0  0  0
   36.4515  -20.6575   38.0312 C   0  0  0  0  0  0  0  0  0  0  0  0
   37.7054  -21.1145   37.9348 N   0  0  0  0  0  0  0  0  0  0  0  0
   38.7649  -20.4503   37.5025 C   0  0  0  0  0  0  0  0  0  0  0  0
   40.0116  -21.0610   37.4608 C   0  0  0  0  0  0  0  0  0  0  0  0
   41.1044  -20.3769   37.0173 C   0  0  0  0  0  0  0  0  0  0  0  0
   35.3484  -21.4705   38.5278 C   0  0  0  0  0  0  0  0  0  0  0  0
   34.4157  -22.0143   37.6682 C   0  0  0  0  0  0  0  0  0  0  0  0
   33.3372  -22.7969   38.0860 C   0  0  0  0  0  0  0  0  0  0  0  0
   33.1613  -23.0625   39.4182 C   0  0  0  0  0  0  0  0  0  0  0  0
   34.0772  -22.5311   40.2857 C   0  0  0  0  0  0  0  0  0  0  0  0
   35.1648  -21.7423   39.8695 C   0  0  0  0  0  0  0  0  0  0  0  0
   36.1061  -21.2085   40.8944 C   0  0  0  0  0  0  0  0  0  0  0  0
   42.8113  -17.5610   37.0016 C   0  0  0  0  0  0  0  0  0  0  0  0
   42.0065  -18.3214   36.1532 O   0  0  0  0  0  0  0  0  0  0  0  0
   37.1114  -17.2487   36.7295 N   0  0  0  0  0  0  0  0  0  0  0  0
   37.6639  -16.7849   35.9599 H   0  0  0  0  0  0  0  0  0  0  0  0
   36.0784  -16.4222   37.3362 C   0  0  0  0  0  0  0  0  0  0  0  0
   36.6431  -15.1167   37.7788 C   0  0  0  0  0  0  0  0  0  0  0  0
   35.5284  -14.0868   37.8254 C   0  0  0  0  0  0  0  0  0  0  0  0
   35.0778  -13.7419   36.5066 N   0  0  0  0  0  0  0  0  0  0  0  0
   35.8427  -12.6264   35.9881 C   0  0  0  0  0  0  0  0  0  0  0  0
   35.2098  -14.8472   35.5791 C   0  0  0  0  0  0  0  0  0  0  0  0
   34.9594  -16.1282   36.3557 C   0  0  0  0  0  0  0  0  0  0  0  0
   42.3796  -20.9123   36.9451 O   0  0  0  0  0  0  0  0  0  0  0  0
   43.0642  -21.1652   35.7425 C   0  0  0  0  0  0  0  0  0  0  0  0
   42.3419  -22.3499   35.0857 C   0  0  0  0  0  0  0  0  0  0  0  0
   41.7585  -21.8301   33.7968 C   0  0  0  0  0  0  0  0  0  0  0  0
   40.7327  -20.8638   33.9618 N   0  0  0  0  0  0  0  0  0  0  0  0
   39.4068  -21.3686   34.0559 C   0  0  0  0  0  0  0  0  0  0  0  0
   38.4852  -20.2707   33.5795 C   0  0  0  0  0  0  0  0  0  0  0  0
   39.3554  -19.2402   32.9053 C   0  0  0  0  0  0  0  0  0  0  0  0
   40.7653  -19.7734   33.0407 C   0  0  0  0  0  0  0  0  0  0  0  0
 18 19  1  0  0  0
 19  1  1  0  0  0
  1  2  2  0  0  0
  2  3  1  0  0  0
  3  4  2  0  0  0
  4 20  1  0  0  0
 20 22  1  0  0  0
 22 23  1  0  0  0
 23 24  1  0  0  0
 24 25  1  0  0  0
 25 26  1  0  0  0
 25 27  1  0  0  0
 27 28  1  0  0  0
  4  5  1  0  0  0
  5  6  2  0  0  0
  6  7  1  0  0  0
  7  8  2  0  0  0
  8  9  1  0  0  0
  9 10  2  0  0  0
 10 29  1  0  0  0
 29 30  1  0  0  0
 30 31  1  0  0  0
 31 32  1  0  0  0
 32 33  1  0  0  0
 33 34  1  0  0  0
 34 35  1  0  0  0
 35 36  1  0  0  0
 36 37  1  0  0  0
  6 11  1  0  0  0
 11 12  2  0  0  0
 12 13  1  0  0  0
 13 14  2  0  0  0
 14 15  1  0  0  0
 15 16  2  0  0  0
 16 17  1  0  0  0
 10  1  1  0  0  0
 37 33  1  0  0  0
 16 11  1  0  0  0
  8  3  1  0  0  0
 28 22  1  0  0  0
 20 21  1  0  0  0
M  END
> <minimizedAffinity>
-4.73508

> <CNNscore>
0.2930275500

> <CNNaffinity>
6.1508865356

> <CNN_VS>
1.8023792505

> <CNNaffinity_variance>
0.0509200506

$$$$
[H]c1c([H])c([H])c(C([H])([H])[H])c(-c2nc3c([H])c(OC([H])([H])C([H])([H])C([H])([H])N4C([H])([H])C([H])([H])C([H])([H])C4([H])[H])c(OC([H])([H])[H])c([H])c3c(N([H])C3([H])C([H])([H])C([H])([H])N(C([H])([H])[H])C([H])([H])C3([H])[H])c2[H])c1[H]


 37 41  0  0  0  0  0  0  0  0999 V2000
   39.6510  -19.3518   35.8585 C   0  0  0  0  0  0  0  0  0  0  0  0
   38.3912  -18.7508   35.9533 C   0  0  0  0  0  0  0  0  0  0  0  0
   37.4725  -19.1852   36.8831 C   0  0  0  0  0  0  0  0  0  0  0  0
   36.2199  -18.6379   37.0297 C   0  0  0  0  0  0  0  0  0  0  0  0
   35.3673  -19.1545   38.0067 C   0  0  0  0  0  0  0  0  0  0  0  0
   35.7505  -20.1948   38.8249 C   0  0  0  0  0  0  0  0  0  0  0  0
   36.9846  -20.6672   38.6147 N   0  0  0  0  0  0  0  0  0  0  0  0
   37.8583  -20.2430   37.7163 C   0  0  0  0  0  0  0  0  0  0  0  0
   39.1110  -20.8344   37.6163 C   0  0  0  0  0  0  0  0  0  0  0  0
   40.0128  -20.3968   36.6922 C   0  0  0  0  0  0  0  0  0  0  0  0
   34.8617  -20.7295   39.8489 C   0  0  0  0  0  0  0  0  0  0  0  0
   34.7958  -20.1646   41.1063 C   0  0  0  0  0  0  0  0  0  0  0  0
   33.9675  -20.6353   42.1273 C   0  0  0  0  0  0  0  0  0  0  0  0
   33.1586  -21.7185   41.9061 C   0  0  0  0  0  0  0  0  0  0  0  0
   33.2109  -22.2919   40.6642 C   0  0  0  0  0  0  0  0  0  0  0  0
   34.0436  -21.8213   39.6331 C   0  0  0  0  0  0  0  0  0  0  0  0
   34.0283  -22.5176   38.3154 C   0  0  0  0  0  0  0  0  0  0  0  0
   40.3204  -19.0691   33.5401 C   0  0  0  0  0  0  0  0  0  0  0  0
   40.5173  -18.8667   34.9061 O   0  0  0  0  0  0  0  0  0  0  0  0
   35.8054  -17.5951   36.1814 N   0  0  0  0  0  0  0  0  0  0  0  0
   36.0154  -16.5759   36.3535 H   0  0  0  0  0  0  0  0  0  0  0  0
   35.0444  -17.8763   34.9730 C   0  0  0  0  0  0  0  0  0  0  0  0
   34.9622  -19.3443   34.7339 C   0  0  0  0  0  0  0  0  0  0  0  0
   33.7294  -19.6403   33.8984 C   0  0  0  0  0  0  0  0  0  0  0  0
   32.5241  -19.4309   34.6499 N   0  0  0  0  0  0  0  0  0  0  0  0
   32.1355  -20.6498   35.3294 C   0  0  0  0  0  0  0  0  0  0  0  0
   32.6768  -18.3900   35.6460 C   0  0  0  0  0  0  0  0  0  0  0  0
   33.6261  -17.3494   35.0782 C   0  0  0  0  0  0  0  0  0  0  0  0
   41.2798  -20.9318   36.5288 O   0  0  0  0  0  0  0  0  0  0  0  0
   41.9618  -21.6655   37.5164 C   0  0  0  0  0  0  0  0  0  0  0  0
   42.5776  -20.6273   38.4648 C   0  0  0  0  0  0  0  0  0  0  0  0
   43.0941  -21.3934   39.6557 C   0  0  0  0  0  0  0  0  0  0  0  0
   42.6250  -20.9211   40.9087 N   0  0  0  0  0  0  0  0  0  0  0  0
   41.2190  -20.7427   41.0235 C   0  0  0  0  0  0  0  0  0  0  0  0
   40.9962  -19.6869   42.0806 C   0  0  0  0  0  0  0  0  0  0  0  0
   42.3347  -19.0392   42.3312 C   0  0  0  0  0  0  0  0  0  0  0  0
   43.2967  -19.7691   41.4189 C   0  0  0  0  0  0  0  0  0  0  0  0
 18 19  1  0  0  0
 19  1  1  0  0  0
  1  2  2  0  0  0
  2  3  1  0  0  0
  3  4  2  0  0  0
  4 20  1  0  0  0
 20 22  1  0  0  0
 22 23  1  0  0  0
 23 24  1  0  0  0
 24 25  1  0  0  0
 25 26  1  0  0  0
 25 27  1  0  0  0
 27 28  1  0  0  0
  4  5  1  0  0  0
  5  6  2  0  0  0
  6  7  1  0  0  0
  7  8  2  0  0  0
  8  9  1  0  0  0
  9 10  2  0  0  0
 10 29  1  0  0  0
 29 30  1  0  0  0
 30 31  1  0  0  0
 31 32  1  0  0  0
 32 33  1  0  0  0
 33 34  1  0  0  0
 34 35  1  0  0  0
 35 36  1  0  0  0
 36 37  1  0  0  0
  6 11  1  0  0  0
 11 12  2  0  0  0
 12 13  1  0  0  0
 13 14  2  0  0  0
 14 15  1  0  0  0
 15 16  2  0  0  0
 16 17  1  0  0  0
 10  1  1  0  0  0
 37 33  1  0  0  0
 16 11  1  0  0  0
  8  3  1  0  0  0
 28 22  1  0  0  0
 20 21  1  0  0  0
M  END
> <minimizedAffinity>
-5.40669

> <CNNscore>
0.2311124355

> <CNNaffinity>
5.5018601418

> <CNN_VS>
1.2715482712

> <CNNaffinity_variance>
0.5813658834

$$$$
[H]c1c([H])c([H])c(C([H])([H])[H])c(-c2nc3c([H])c(OC([H])([H])C([H])([H])C([H])([H])N4C([H])([H])C([H])([H])C([H])([H])C4([H])[H])c(OC([H])([H])[H])c([H])c3c(N([H])C3([H])C([H])([H])C([H])([H])N(C([H])([H])[H])C([H])([H])C3([H])[H])c2[H])c1[H]


 37 41  0  0  0  0  0  0  0  0999 V2000
   36.0472  -22.2040   37.6153 C   0  0  0  0  0  0  0  0  0  0  0  0
   37.0920  -21.3972   37.1520 C   0  0  0  0  0  0  0  0  0  0  0  0
   36.9378  -20.0318   37.0572 C   0  0  0  0  0  0  0  0  0  0  0  0
   37.9235  -19.1828   36.6126 C   0  0  0  0  0  0  0  0  0  0  0  0
   37.6609  -17.8130   36.5576 C   0  0  0  0  0  0  0  0  0  0  0  0
   36.4426  -17.2939   36.9382 C   0  0  0  0  0  0  0  0  0  0  0  0
   35.5415  -18.1897   37.3579 N   0  0  0  0  0  0  0  0  0  0  0  0
   35.7004  -19.5004   37.4428 C   0  0  0  0  0  0  0  0  0  0  0  0
   34.6679  -20.3079   37.9019 C   0  0  0  0  0  0  0  0  0  0  0  0
   34.8312  -21.6585   37.9916 C   0  0  0  0  0  0  0  0  0  0  0  0
   36.1714  -15.8627   36.8864 C   0  0  0  0  0  0  0  0  0  0  0  0
   37.0360  -14.9488   37.4535 C   0  0  0  0  0  0  0  0  0  0  0  0
   36.8269  -13.5682   37.4385 C   0  0  0  0  0  0  0  0  0  0  0  0
   35.7103  -13.0528   36.8350 C   0  0  0  0  0  0  0  0  0  0  0  0
   34.8413  -13.9449   36.2669 C   0  0  0  0  0  0  0  0  0  0  0  0
   35.0477  -15.3361   36.2798 C   0  0  0  0  0  0  0  0  0  0  0  0
   34.0395  -16.2237   35.6341 C   0  0  0  0  0  0  0  0  0  0  0  0
   37.5161  -24.1283   37.4098 C   0  0  0  0  0  0  0  0  0  0  0  0
   36.2721  -23.5596   37.6829 O   0  0  0  0  0  0  0  0  0  0  0  0
   39.1616  -19.7026   36.1932 N   0  0  0  0  0  0  0  0  0  0  0  0
   39.3303  -20.1315   35.2444 H   0  0  0  0  0  0  0  0  0  0  0  0
   40.3202  -19.6681   37.0734 C   0  0  0  0  0  0  0  0  0  0  0  0
   40.9993  -20.9937   37.0995 C   0  0  0  0  0  0  0  0  0  0  0  0
   42.4550  -20.7954   37.4830 C   0  0  0  0  0  0  0  0  0  0  0  0
   43.1899  -20.1469   36.4338 N   0  0  0  0  0  0  0  0  0  0  0  0
   43.7492  -21.1297   35.5284 C   0  0  0  0  0  0  0  0  0  0  0  0
   42.3578  -19.2465   35.6617 C   0  0  0  0  0  0  0  0  0  0  0  0
   41.3362  -18.6422   36.6092 C   0  0  0  0  0  0  0  0  0  0  0  0
   33.8532  -22.5315   38.4385 O   0  0  0  0  0  0  0  0  0  0  0  0
   32.5098  -22.4938   38.0231 C   0  0  0  0  0  0  0  0  0  0  0  0
   32.4171  -23.4249   36.8061 C   0  0  0  0  0  0  0  0  0  0  0  0
   32.3187  -22.5328   35.5952 C   0  0  0  0  0  0  0  0  0  0  0  0
   31.6331  -21.3106   35.8179 N   0  0  0  0  0  0  0  0  0  0  0  0
   30.2288  -21.3316   35.5960 C   0  0  0  0  0  0  0  0  0  0  0  0
   29.8194  -19.9202   35.2464 C   0  0  0  0  0  0  0  0  0  0  0  0
   31.0906  -19.1615   34.9599 C   0  0  0  0  0  0  0  0  0  0  0  0
   32.2011  -20.1656   35.1814 C   0  0  0  0  0  0  0  0  0  0  0  0
 18 19  1  0  0  0
 19  1  1  0  0  0
  1  2  2  0  0  0
  2  3  1  0  0  0
  3  4  2  0  0  0
  4 20  1  0  0  0
 20 22  1  0  0  0
 22 23  1  0  0  0
 23 24  1  0  0  0
 24 25  1  0  0  0
 25 26  1  0  0  0
 25 27  1  0  0  0
 27 28  1  0  0  0
  4  5  1  0  0  0
  5  6  2  0  0  0
  6  7  1  0  0  0
  7  8  2  0  0  0
  8  9  1  0  0  0
  9 10  2  0  0  0
 10 29  1  0  0  0
 29 30  1  0  0  0
 30 31  1  0  0  0
 31 32  1  0  0  0
 32 33  1  0  0  0
 33 34  1  0  0  0
 34 35  1  0  0  0
 35 36  1  0  0  0
 36 37  1  0  0  0
  6 11  1  0  0  0
 11 12  2  0  0  0
 12 13  1  0  0  0
 13 14  2  0  0  0
 14 15  1  0  0  0
 15 16  2  0  0  0
 16 17  1  0  0  0
 10  1  1  0  0  0
 37 33  1  0  0  0
 16 11  1  0  0  0
  8  3  1  0  0  0
 28 22  1  0  0  0
 20 21  1  0  0  0
M  END
> <minimizedAffinity>
-6.66021

> <CNNscore>
0.2201727927

> <CNNaffinity>
5.8219347000

> <CNN_VS>
1.2818316221

> <CNNaffinity_variance>
0.6513265967

$$$$
[H]OC([H])([H])c1oc(-c2nc3c([H])c(OC([H])([H])C([H])([H])C([H])([H])N4C([H])([H])C([H])([H])C([H])([H])C4([H])[H])c(OC([H])([H])[H])c([H])c3c(N([H])C3([H])C([H])([H])C([H])([H])N(C([H])([H])[H])C([H])([H])C3([H])[H])c2[H])c([H])c1[H]


 38 42  0  0  0  0  0  0  0  0999 V2000
   36.1260  -13.8867   36.7761 C   0  0  0  0  0  0  0  0  0  0  0  0
   36.5509  -15.1930   36.5193 C   0  0  0  0  0  0  0  0  0  0  0  0
   35.6830  -16.1985   36.1712 C   0  0  0  0  0  0  0  0  0  0  0  0
   36.0693  -17.5023   35.9107 C   0  0  0  0  0  0  0  0  0  0  0  0
   35.1297  -18.4625   35.5649 C   0  0  0  0  0  0  0  0  0  0  0  0
   33.8131  -18.1006   35.4854 C   0  0  0  0  0  0  0  0  0  0  0  0
   33.4618  -16.8339   35.7415 N   0  0  0  0  0  0  0  0  0  0  0  0
   34.3307  -15.8675   36.0798 C   0  0  0  0  0  0  0  0  0  0  0  0
   33.9204  -14.5695   36.3365 C   0  0  0  0  0  0  0  0  0  0  0  0
   34.7912  -13.5626   36.6852 C   0  0  0  0  0  0  0  0  0  0  0  0
   32.7944  -19.1042   35.1189 C   0  0  0  0  0  0  0  0  0  0  0  0
   32.8495  -20.0454   34.1430 C   0  0  0  0  0  0  0  0  0  0  0  0
   31.6385  -20.7303   34.2159 C   0  0  0  0  0  0  0  0  0  0  0  0
   30.9173  -20.1618   35.2357 C   0  0  0  0  0  0  0  0  0  0  0  0
   31.6582  -19.2127   35.7214 O   0  0  0  0  0  0  0  0  0  0  0  0
   29.5756  -20.5434   35.6937 C   0  0  0  0  0  0  0  0  0  0  0  0
   29.6634  -20.9698   37.0088 O   0  0  0  0  0  0  0  0  0  0  0  0
   28.9697  -20.4914   37.5319 H   0  0  0  0  0  0  0  0  0  0  0  0
   38.3696  -13.1851   37.4969 C   0  0  0  0  0  0  0  0  0  0  0  0
   37.0498  -12.8958   37.1277 O   0  0  0  0  0  0  0  0  0  0  0  0
   37.4409  -17.8433   35.9873 N   0  0  0  0  0  0  0  0  0  0  0  0
   38.0866  -17.2640   36.5368 H   0  0  0  0  0  0  0  0  0  0  0  0
   38.0172  -18.9998   35.3121 C   0  0  0  0  0  0  0  0  0  0  0  0
   39.2626  -19.5119   36.0205 C   0  0  0  0  0  0  0  0  0  0  0  0
   40.4756  -19.0463   35.2814 C   0  0  0  0  0  0  0  0  0  0  0  0
   40.5554  -19.6670   33.9726 N   0  0  0  0  0  0  0  0  0  0  0  0
   41.6523  -19.0574   33.2587 C   0  0  0  0  0  0  0  0  0  0  0  0
   39.3286  -19.5397   33.2298 C   0  0  0  0  0  0  0  0  0  0  0  0
   38.3906  -18.6051   33.9241 C   0  0  0  0  0  0  0  0  0  0  0  0
   34.4173  -12.2539   36.9489 O   0  0  0  0  0  0  0  0  0  0  0  0
   33.5099  -11.9592   38.0168 C   0  0  0  0  0  0  0  0  0  0  0  0
   32.3355  -11.1731   37.5372 C   0  0  0  0  0  0  0  0  0  0  0  0
   31.1959  -12.1149   37.2490 C   0  0  0  0  0  0  0  0  0  0  0  0
   29.9498  -11.3975   37.4576 N   0  0  0  0  0  0  0  0  0  0  0  0
   30.2141  -10.0683   37.9752 C   0  0  0  0  0  0  0  0  0  0  0  0
   28.9716   -9.7109   38.7342 C   0  0  0  0  0  0  0  0  0  0  0  0
   28.5363  -11.0091   39.3293 C   0  0  0  0  0  0  0  0  0  0  0  0
   29.0974  -12.0501   38.4153 C   0  0  0  0  0  0  0  0  0  0  0  0
 19 20  1  0  0  0
 20  1  1  0  0  0
  1  2  2  0  0  0
  2  3  1  0  0  0
  3  4  2  0  0  0
  4 21  1  0  0  0
 21 23  1  0  0  0
 23 24  1  0  0  0
 24 25  1  0  0  0
 25 26  1  0  0  0
 26 27  1  0  0  0
 26 28  1  0  0  0
 28 29  1  0  0  0
  4  5  1  0  0  0
  5  6  2  0  0  0
  6  7  1  0  0  0
  7  8  2  0  0  0
  8  9  1  0  0  0
  9 10  2  0  0  0
 10 30  1  0  0  0
 30 31  1  0  0  0
 31 32  1  0  0  0
 32 33  1  0  0  0
 33 34  1  0  0  0
 34 35  1  0  0  0
 35 36  1  0  0  0
 36 37  1  0  0  0
 37 38  1  0  0  0
  6 11  1  0  0  0
 11 12  2  0  0  0
 12 13  1  0  0  0
 13 14  2  0  0  0
 14 16  1  0  0  0
 16 17  1  0  0  0
 14 15  1  0  0  0
 10  1  1  0  0  0
 38 34  1  0  0  0
 15 11  1  0  0  0
  8  3  1  0  0  0
 29 23  1  0  0  0
 21 22  1  0  0  0
 17 18  1  0  0  0
M  END
> <minimizedAffinity>
-8.72432

> <CNNscore>
0.8878310919

> <CNNaffinity>
7.4151673317

> <CNN_VS>
6.5834159851

> <CNNaffinity_variance>
0.0564161427

$$$$
[H]OC([H])([H])c1oc(-c2nc3c([H])c(OC([H])([H])C([H])([H])C([H])([H])N4C([H])([H])C([H])([H])C([H])([H])C4([H])[H])c(OC([H])([H])[H])c([H])c3c(N([H])C3([H])C([H])([H])C([H])([H])N(C([H])([H])[H])C([H])([H])C3([H])[H])c2[H])c([H])c1[H]


 38 42  0  0  0  0  0  0  0  0999 V2000
   36.1212  -14.1747   36.7621 C   0  0  0  0  0  0  0  0  0  0  0  0
   36.6777  -15.4537   36.6776 C   0  0  0  0  0  0  0  0  0  0  0  0
   35.9437  -16.5581   36.3210 C   0  0  0  0  0  0  0  0  0  0  0  0
   36.4623  -17.8384   36.2281 C   0  0  0  0  0  0  0  0  0  0  0  0
   35.6534  -18.9040   35.8610 C   0  0  0  0  0  0  0  0  0  0  0  0
   34.3329  -18.6697   35.5923 C   0  0  0  0  0  0  0  0  0  0  0  0
   33.8525  -17.4234   35.6885 N   0  0  0  0  0  0  0  0  0  0  0  0
   34.5918  -16.3586   36.0390 C   0  0  0  0  0  0  0  0  0  0  0  0
   34.0504  -15.0864   36.1259 C   0  0  0  0  0  0  0  0  0  0  0  0
   34.7872  -13.9804   36.4832 C   0  0  0  0  0  0  0  0  0  0  0  0
   33.4519  -19.7872   35.1993 C   0  0  0  0  0  0  0  0  0  0  0  0
   32.4707  -19.7992   34.2622 C   0  0  0  0  0  0  0  0  0  0  0  0
   31.9489  -21.0907   34.2843 C   0  0  0  0  0  0  0  0  0  0  0  0
   32.6472  -21.7888   35.2374 C   0  0  0  0  0  0  0  0  0  0  0  0
   33.5144  -20.9601   35.7342 O   0  0  0  0  0  0  0  0  0  0  0  0
   32.4590  -23.1923   35.6251 C   0  0  0  0  0  0  0  0  0  0  0  0
   33.6765  -23.6997   36.0488 O   0  0  0  0  0  0  0  0  0  0  0  0
   33.5344  -24.1424   36.9249 H   0  0  0  0  0  0  0  0  0  0  0  0
   38.2269  -13.2137   37.5918 C   0  0  0  0  0  0  0  0  0  0  0  0
   36.9113  -13.0795   37.1300 O   0  0  0  0  0  0  0  0  0  0  0  0
   37.8358  -18.0472   36.4986 N   0  0  0  0  0  0  0  0  0  0  0  0
   38.3364  -17.4205   37.1399 H   0  0  0  0  0  0  0  0  0  0  0  0
   38.6136  -19.1276   35.9042 C   0  0  0  0  0  0  0  0  0  0  0  0
   39.8972  -19.3974   36.6753 C   0  0  0  0  0  0  0  0  0  0  0  0
   41.0475  -18.7796   35.9477 C   0  0  0  0  0  0  0  0  0  0  0  0
   41.2740  -19.4426   34.6774 N   0  0  0  0  0  0  0  0  0  0  0  0
   42.2859  -18.7002   33.9637 C   0  0  0  0  0  0  0  0  0  0  0  0
   40.0712  -19.5508   33.8934 C   0  0  0  0  0  0  0  0  0  0  0  0
   38.9712  -18.7463   34.5083 C   0  0  0  0  0  0  0  0  0  0  0  0
   34.2801  -12.6939   36.5805 O   0  0  0  0  0  0  0  0  0  0  0  0
   33.2034  -12.4038   37.4789 C   0  0  0  0  0  0  0  0  0  0  0  0
   32.0683  -11.7359   36.7769 C   0  0  0  0  0  0  0  0  0  0  0  0
   31.3637  -10.8179   37.7409 C   0  0  0  0  0  0  0  0  0  0  0  0
   32.0619   -9.5437   37.7475 N   0  0  0  0  0  0  0  0  0  0  0  0
   31.7271   -8.7794   36.5608 C   0  0  0  0  0  0  0  0  0  0  0  0
   32.9127   -7.8873   36.3462 C   0  0  0  0  0  0  0  0  0  0  0  0
   34.0698   -8.7313   36.7675 C   0  0  0  0  0  0  0  0  0  0  0  0
   33.4916   -9.7041   37.7439 C   0  0  0  0  0  0  0  0  0  0  0  0
 19 20  1  0  0  0
 20  1  1  0  0  0
  1  2  2  0  0  0
  2  3  1  0  0  0
  3  4  2  0  0  0
  4 21  1  0  0  0
 21 23  1  0  0  0
 23 24  1  0  0  0
 24 25  1  0  0  0
 25 26  1  0  0  0
 26 27  1  0  0  0
 26 28  1  0  0  0
 28 29  1  0  0  0
  4  5  1  0  0  0
  5  6  2  0  0  0
  6  7  1  0  0  0
  7  8  2  0  0  0
  8  9  1  0  0  0
  9 10  2  0  0  0
 10 30  1  0  0  0
 30 31  1  0  0  0
 31 32  1  0  0  0
 32 33  1  0  0  0
 33 34  1  0  0  0
 34 35  1  0  0  0
 35 36  1  0  0  0
 36 37  1  0  0  0
 37 38  1  0  0  0
  6 11  1  0  0  0
 11 12  2  0  0  0
 12 13  1  0  0  0
 13 14  2  0  0  0
 14 16  1  0  0  0
 16 17  1  0  0  0
 14 15  1  0  0  0
 10  1  1  0  0  0
 38 34  1  0  0  0
 15 11  1  0  0  0
  8  3  1  0  0  0
 29 23  1  0  0  0
 21 22  1  0  0  0
 17 18  1  0  0  0
M  END
> <minimizedAffinity>
-7.84272

> <CNNscore>
0.6432493925

> <CNNaffinity>
6.9855642319

> <CNN_VS>
4.4934601784

> <CNNaffinity_variance>
0.0161564033

$$$$
[H]OC([H])([H])c1oc(-c2nc3c([H])c(OC([H])([H])C([H])([H])C([H])([H])N4C([H])([H])C([H])([H])C([H])([H])C4([H])[H])c(OC([H])([H])[H])c([H])c3c(N([H])C3([H])C([H])([H])C([H])([H])N(C([H])([H])[H])C([H])([H])C3([H])[H])c2[H])c([H])c1[H]


 38 42  0  0  0  0  0  0  0  0999 V2000
   36.1501  -14.2820   36.8016 C   0  0  0  0  0  0  0  0  0  0  0  0
   36.6842  -15.5729   36.7678 C   0  0  0  0  0  0  0  0  0  0  0  0
   35.9477  -16.6688   36.3907 C   0  0  0  0  0  0  0  0  0  0  0  0
   36.4443  -17.9604   36.3465 C   0  0  0  0  0  0  0  0  0  0  0  0
   35.6345  -19.0163   35.9543 C   0  0  0  0  0  0  0  0  0  0  0  0
   34.3351  -18.7610   35.6116 C   0  0  0  0  0  0  0  0  0  0  0  0
   33.8758  -17.5041   35.6617 N   0  0  0  0  0  0  0  0  0  0  0  0
   34.6170  -16.4480   36.0338 C   0  0  0  0  0  0  0  0  0  0  0  0
   34.0979  -15.1641   36.0708 C   0  0  0  0  0  0  0  0  0  0  0  0
   34.8370  -14.0667   36.4488 C   0  0  0  0  0  0  0  0  0  0  0  0
   33.4536  -19.8678   35.1906 C   0  0  0  0  0  0  0  0  0  0  0  0
   32.5689  -19.8978   34.1622 C   0  0  0  0  0  0  0  0  0  0  0  0
   31.9972  -21.1677   34.1983 C   0  0  0  0  0  0  0  0  0  0  0  0
   32.5712  -21.8358   35.2506 C   0  0  0  0  0  0  0  0  0  0  0  0
   33.4175  -21.0110   35.7883 O   0  0  0  0  0  0  0  0  0  0  0  0
   32.2912  -23.2088   35.6889 C   0  0  0  0  0  0  0  0  0  0  0  0
   32.1479  -24.0091   34.5672 O   0  0  0  0  0  0  0  0  0  0  0  0
   32.7236  -24.8078   34.6865 H   0  0  0  0  0  0  0  0  0  0  0  0
   38.3084  -13.3161   37.4759 C   0  0  0  0  0  0  0  0  0  0  0  0
   36.9418  -13.1962   37.1932 O   0  0  0  0  0  0  0  0  0  0  0  0
   37.7970  -18.1912   36.6933 N   0  0  0  0  0  0  0  0  0  0  0  0
   38.2499  -17.6171   37.4143 H   0  0  0  0  0  0  0  0  0  0  0  0
   38.6182  -19.2227   36.0711 C   0  0  0  0  0  0  0  0  0  0  0  0
   39.9346  -19.4246   36.8068 C   0  0  0  0  0  0  0  0  0  0  0  0
   41.0291  -18.7389   36.0543 C   0  0  0  0  0  0  0  0  0  0  0  0
   41.2590  -19.3807   34.7738 N   0  0  0  0  0  0  0  0  0  0  0  0
   42.2088  -18.5784   34.0396 C   0  0  0  0  0  0  0  0  0  0  0  0
   40.0440  -19.5515   34.0203 C   0  0  0  0  0  0  0  0  0  0  0  0
   38.9172  -18.8137   34.6693 C   0  0  0  0  0  0  0  0  0  0  0  0
   34.3518  -12.7690   36.4979 O   0  0  0  0  0  0  0  0  0  0  0  0
   33.6122  -12.3129   37.6361 C   0  0  0  0  0  0  0  0  0  0  0  0
   32.1408  -12.3720   37.3935 C   0  0  0  0  0  0  0  0  0  0  0  0
   31.4602  -12.9208   38.6199 C   0  0  0  0  0  0  0  0  0  0  0  0
   30.3322  -12.0615   38.9364 N   0  0  0  0  0  0  0  0  0  0  0  0
   29.1440  -12.8580   39.1776 C   0  0  0  0  0  0  0  0  0  0  0  0
   28.0069  -11.9415   38.8390 C   0  0  0  0  0  0  0  0  0  0  0  0
   28.5279  -11.1427   37.6904 C   0  0  0  0  0  0  0  0  0  0  0  0
   30.0127  -11.1610   37.8608 C   0  0  0  0  0  0  0  0  0  0  0  0
 19 20  1  0  0  0
 20  1  1  0  0  0
  1  2  2  0  0  0
  2  3  1  0  0  0
  3  4  2  0  0  0
  4 21  1  0  0  0
 21 23  1  0  0  0
 23 24  1  0  0  0
 24 25  1  0  0  0
 25 26  1  0  0  0
 26 27  1  0  0  0
 26 28  1  0  0  0
 28 29  1  0  0  0
  4  5  1  0  0  0
  5  6  2  0  0  0
  6  7  1  0  0  0
  7  8  2  0  0  0
  8  9  1  0  0  0
  9 10  2  0  0  0
 10 30  1  0  0  0
 30 31  1  0  0  0
 31 32  1  0  0  0
 32 33  1  0  0  0
 33 34  1  0  0  0
 34 35  1  0  0  0
 35 36  1  0  0  0
 36 37  1  0  0  0
 37 38  1  0  0  0
  6 11  1  0  0  0
 11 12  2  0  0  0
 12 13  1  0  0  0
 13 14  2  0  0  0
 14 16  1  0  0  0
 16 17  1  0  0  0
 14 15  1  0  0  0
 10  1  1  0  0  0
 38 34  1  0  0  0
 15 11  1  0  0  0
  8  3  1  0  0  0
 29 23  1  0  0  0
 21 22  1  0  0  0
 17 18  1  0  0  0
M  END
> <minimizedAffinity>
-8.20430

> <CNNscore>
0.5805432200

> <CNNaffinity>
6.7001404762

> <CNN_VS>
3.8897211552

> <CNNaffinity_variance>
0.1057373732

$$$$
[H]OC([H])([H])c1oc(-c2nc3c([H])c(OC([H])([H])C([H])([H])C([H])([H])N4C([H])([H])C([H])([H])C([H])([H])C4([H])[H])c(OC([H])([H])[H])c([H])c3c(N([H])C3([H])C([H])([H])C([H])([H])N(C([H])([H])[H])C([H])([H])C3([H])[H])c2[H])c([H])c1[H]


 38 42  0  0  0  0  0  0  0  0999 V2000
   36.1169  -13.9661   36.5719 C   0  0  0  0  0  0  0  0  0  0  0  0
   36.5756  -15.2551   36.2875 C   0  0  0  0  0  0  0  0  0  0  0  0
   35.7301  -16.2852   35.9566 C   0  0  0  0  0  0  0  0  0  0  0  0
   36.1500  -17.5730   35.6698 C   0  0  0  0  0  0  0  0  0  0  0  0
   35.2314  -18.5602   35.3440 C   0  0  0  0  0  0  0  0  0  0  0  0
   33.9018  -18.2409   35.3107 C   0  0  0  0  0  0  0  0  0  0  0  0
   33.5180  -16.9890   35.5916 N   0  0  0  0  0  0  0  0  0  0  0  0
   34.3654  -15.9979   35.9123 C   0  0  0  0  0  0  0  0  0  0  0  0
   33.9216  -14.7167   36.1959 C   0  0  0  0  0  0  0  0  0  0  0  0
   34.7701  -13.6851   36.5273 C   0  0  0  0  0  0  0  0  0  0  0  0
   32.9049  -19.2739   34.9663 C   0  0  0  0  0  0  0  0  0  0  0  0
   31.6578  -19.1074   34.4581 C   0  0  0  0  0  0  0  0  0  0  0  0
   31.1372  -20.3919   34.3175 C   0  0  0  0  0  0  0  0  0  0  0  0
   32.1031  -21.2653   34.7505 C   0  0  0  0  0  0  0  0  0  0  0  0
   33.1145  -20.5384   35.1169 O   0  0  0  0  0  0  0  0  0  0  0  0
   32.0193  -22.7305   34.7943 C   0  0  0  0  0  0  0  0  0  0  0  0
   31.9580  -23.2076   33.4952 O   0  0  0  0  0  0  0  0  0  0  0  0
   32.6379  -23.9235   33.4005 H   0  0  0  0  0  0  0  0  0  0  0  0
   38.3047  -13.2054   37.3970 C   0  0  0  0  0  0  0  0  0  0  0  0
   37.0190  -12.9487   36.9042 O   0  0  0  0  0  0  0  0  0  0  0  0
   37.5337  -17.8694   35.6986 N   0  0  0  0  0  0  0  0  0  0  0  0
   38.1658  -17.4491   35.0070 H   0  0  0  0  0  0  0  0  0  0  0  0
   38.1404  -18.7648   36.6762 C   0  0  0  0  0  0  0  0  0  0  0  0
   38.9471  -19.8712   36.0127 C   0  0  0  0  0  0  0  0  0  0  0  0
   38.1500  -21.1357   36.0241 C   0  0  0  0  0  0  0  0  0  0  0  0
   37.9666  -21.6209   37.3789 N   0  0  0  0  0  0  0  0  0  0  0  0
   37.0624  -22.7455   37.3287 C   0  0  0  0  0  0  0  0  0  0  0  0
   37.4653  -20.6012   38.2632 C   0  0  0  0  0  0  0  0  0  0  0  0
   37.0576  -19.3897   37.4877 C   0  0  0  0  0  0  0  0  0  0  0  0
   34.3626  -12.3921   36.8170 O   0  0  0  0  0  0  0  0  0  0  0  0
   33.6190  -12.1151   38.0091 C   0  0  0  0  0  0  0  0  0  0  0  0
   32.1594  -11.9840   37.7269 C   0  0  0  0  0  0  0  0  0  0  0  0
   31.3843  -12.7319   38.7798 C   0  0  0  0  0  0  0  0  0  0  0  0
   29.9695  -12.4771   38.5691 N   0  0  0  0  0  0  0  0  0  0  0  0
   29.7846  -11.2466   37.8233 C   0  0  0  0  0  0  0  0  0  0  0  0
   28.4231  -10.7672   38.2285 C   0  0  0  0  0  0  0  0  0  0  0  0
   28.3262  -11.1555   39.6668 C   0  0  0  0  0  0  0  0  0  0  0  0
   29.2525  -12.3202   39.8065 C   0  0  0  0  0  0  0  0  0  0  0  0
 19 20  1  0  0  0
 20  1  1  0  0  0
  1  2  2  0  0  0
  2  3  1  0  0  0
  3  4  2  0  0  0
  4 21  1  0  0  0
 21 23  1  0  0  0
 23 24  1  0  0  0
 24 25  1  0  0  0
 25 26  1  0  0  0
 26 27  1  0  0  0
 26 28  1  0  0  0
 28 29  1  0  0  0
  4  5  1  0  0  0
  5  6  2  0  0  0
  6  7  1  0  0  0
  7  8  2  0  0  0
  8  9  1  0  0  0
  9 10  2  0  0  0
 10 30  1  0  0  0
 30 31  1  0  0  0
 31 32  1  0  0  0
 32 33  1  0  0  0
 33 34  1  0  0  0
 34 35  1  0  0  0
 35 36  1  0  0  0
 36 37  1  0  0  0
 37 38  1  0  0  0
  6 11  1  0  0  0
 11 12  2  0  0  0
 12 13  1  0  0  0
 13 14  2  0  0  0
 14 16  1  0  0  0
 16 17  1  0  0  0
 14 15  1  0  0  0
 10  1  1  0  0  0
 38 34  1  0  0  0
 15 11  1  0  0  0
  8  3  1  0  0  0
 29 23  1  0  0  0
 21 22  1  0  0  0
 17 18  1  0  0  0
M  END
> <minimizedAffinity>
-7.96640

> <CNNscore>
0.5692251325

> <CNNaffinity>
6.6324515343

> <CNN_VS>
3.7753582001

> <CNNaffinity_variance>
0.3137310445

$$$$
[H]OC([H])([H])c1oc(-c2nc3c([H])c(OC([H])([H])C([H])([H])C([H])([H])N4C([H])([H])C([H])([H])C([H])([H])C4([H])[H])c(OC([H])([H])[H])c([H])c3c(N([H])C3([H])C([H])([H])C([H])([H])N(C([H])([H])[H])C([H])([H])C3([H])[H])c2[H])c([H])c1[H]


 38 42  0  0  0  0  0  0  0  0999 V2000
   34.3064  -14.7656   36.3718 C   0  0  0  0  0  0  0  0  0  0  0  0
   34.0936  -16.1249   36.1274 C   0  0  0  0  0  0  0  0  0  0  0  0
   35.1183  -17.0380   36.0827 C   0  0  0  0  0  0  0  0  0  0  0  0
   34.9435  -18.3904   35.8428 C   0  0  0  0  0  0  0  0  0  0  0  0
   36.0321  -19.2497   35.8130 C   0  0  0  0  0  0  0  0  0  0  0  0
   37.2833  -18.7392   36.0244 C   0  0  0  0  0  0  0  0  0  0  0  0
   37.4292  -17.4280   36.2547 N   0  0  0  0  0  0  0  0  0  0  0  0
   36.4099  -16.5546   36.2940 C   0  0  0  0  0  0  0  0  0  0  0  0
   36.6095  -15.2051   36.5355 C   0  0  0  0  0  0  0  0  0  0  0  0
   35.5817  -14.2911   36.5801 C   0  0  0  0  0  0  0  0  0  0  0  0
   38.4576  -19.6334   35.9981 C   0  0  0  0  0  0  0  0  0  0  0  0
   38.6482  -20.7549   35.2583 C   0  0  0  0  0  0  0  0  0  0  0  0
   39.9145  -21.2205   35.6054 C   0  0  0  0  0  0  0  0  0  0  0  0
   40.4194  -20.3505   36.5389 C   0  0  0  0  0  0  0  0  0  0  0  0
   39.5094  -19.4426   36.7212 O   0  0  0  0  0  0  0  0  0  0  0  0
   41.7262  -20.4231   37.2042 C   0  0  0  0  0  0  0  0  0  0  0  0
   42.0410  -21.7558   37.4136 O   0  0  0  0  0  0  0  0  0  0  0  0
   42.9606  -21.9091   37.0752 H   0  0  0  0  0  0  0  0  0  0  0  0
   32.6272  -13.4572   37.6023 C   0  0  0  0  0  0  0  0  0  0  0  0
   33.2285  -13.8735   36.4077 O   0  0  0  0  0  0  0  0  0  0  0  0
   33.6351  -18.8914   35.6416 N   0  0  0  0  0  0  0  0  0  0  0  0
   32.8205  -18.3395   35.9355 H   0  0  0  0  0  0  0  0  0  0  0  0
   33.3586  -20.1842   35.0270 C   0  0  0  0  0  0  0  0  0  0  0  0
   32.1386  -20.1349   34.1191 C   0  0  0  0  0  0  0  0  0  0  0  0
   30.9699  -20.7344   34.8325 C   0  0  0  0  0  0  0  0  0  0  0  0
   31.1683  -22.1548   35.0504 N   0  0  0  0  0  0  0  0  0  0  0  0
   30.0849  -22.6325   35.8766 C   0  0  0  0  0  0  0  0  0  0  0  0
   32.4408  -22.4435   35.6591 C   0  0  0  0  0  0  0  0  0  0  0  0
   33.1061  -21.1813   36.1057 C   0  0  0  0  0  0  0  0  0  0  0  0
   35.7433  -12.9351   36.8187 O   0  0  0  0  0  0  0  0  0  0  0  0
   35.8213  -12.0101   35.7283 C   0  0  0  0  0  0  0  0  0  0  0  0
   35.2188  -10.6917   36.0834 C   0  0  0  0  0  0  0  0  0  0  0  0
   34.3760  -10.8518   37.3214 C   0  0  0  0  0  0  0  0  0  0  0  0
   33.6977   -9.5923   37.5752 N   0  0  0  0  0  0  0  0  0  0  0  0
   32.2597   -9.7727   37.5123 C   0  0  0  0  0  0  0  0  0  0  0  0
   31.7316   -8.4220   37.1324 C   0  0  0  0  0  0  0  0  0  0  0  0
   32.7706   -7.8856   36.2041 C   0  0  0  0  0  0  0  0  0  0  0  0
   34.0294   -8.5871   36.6008 C   0  0  0  0  0  0  0  0  0  0  0  0
 19 20  1  0  0  0
 20  1  1  0  0  0
  1  2  2  0  0  0
  2  3  1  0  0  0
  3  4  2  0  0  0
  4 21  1  0  0  0
 21 23  1  0  0  0
 23 24  1  0  0  0
 24 25  1  0  0  0
 25 26  1  0  0  0
 26 27  1  0  0  0
 26 28  1  0  0  0
 28 29  1  0  0  0
  4  5  1  0  0  0
  5  6  2  0  0  0
  6  7  1  0  0  0
  7  8  2  0  0  0
  8  9  1  0  0  0
  9 10  2  0  0  0
 10 30  1  0  0  0
 30 31  1  0  0  0
 31 32  1  0  0  0
 32 33  1  0  0  0
 33 34  1  0  0  0
 34 35  1  0  0  0
 35 36  1  0  0  0
 36 37  1  0  0  0
 37 38  1  0  0  0
  6 11  1  0  0  0
 11 12  2  0  0  0
 12 13  1  0  0  0
 13 14  2  0  0  0
 14 16  1  0  0  0
 16 17  1  0  0  0
 14 15  1  0  0  0
 10  1  1  0  0  0
 38 34  1  0  0  0
 15 11  1  0  0  0
  8  3  1  0  0  0
 29 23  1  0  0  0
 21 22  1  0  0  0
 17 18  1  0  0  0
M  END
> <minimizedAffinity>
-6.05726

> <CNNscore>
0.3786137700

> <CNNaffinity>
6.4262442589

> <CNN_VS>
2.4330644608

> <CNNaffinity_variance>
0.0070187501

$$$$
[H]OC([H])([H])c1oc(-c2nc3c([H])c(OC([H])([H])C([H])([H])C([H])([H])N4C([H])([H])C([H])([H])C([H])([H])C4([H])[H])c(OC([H])([H])[H])c([H])c3c(N([H])C3([H])C([H])([H])C([H])([H])N(C([H])([H])[H])C([H])([H])C3([H])[H])c2[H])c([H])c1[H]


 38 42  0  0  0  0  0  0  0  0999 V2000
   32.9822  -20.9675   35.4301 C   0  0  0  0  0  0  0  0  0  0  0  0
   34.2472  -20.6648   35.9411 C   0  0  0  0  0  0  0  0  0  0  0  0
   34.6747  -19.3756   36.1428 C   0  0  0  0  0  0  0  0  0  0  0  0
   35.9202  -19.0402   36.6463 C   0  0  0  0  0  0  0  0  0  0  0  0
   36.2778  -17.7112   36.8206 C   0  0  0  0  0  0  0  0  0  0  0  0
   35.3794  -16.7355   36.4865 C   0  0  0  0  0  0  0  0  0  0  0  0
   34.1805  -17.0826   36.0012 N   0  0  0  0  0  0  0  0  0  0  0  0
   33.7853  -18.3522   35.8135 C   0  0  0  0  0  0  0  0  0  0  0  0
   32.5338  -18.6636   35.3077 C   0  0  0  0  0  0  0  0  0  0  0  0
   32.1064  -19.9560   35.1061 C   0  0  0  0  0  0  0  0  0  0  0  0
   35.7364  -15.3140   36.6633 C   0  0  0  0  0  0  0  0  0  0  0  0
   34.9540  -14.2191   36.4891 C   0  0  0  0  0  0  0  0  0  0  0  0
   35.7681  -13.1276   36.7834 C   0  0  0  0  0  0  0  0  0  0  0  0
   37.0013  -13.6268   37.1203 C   0  0  0  0  0  0  0  0  0  0  0  0
   36.9095  -14.9185   37.0279 O   0  0  0  0  0  0  0  0  0  0  0  0
   38.1924  -12.8614   37.5089 C   0  0  0  0  0  0  0  0  0  0  0  0
   39.2716  -13.3209   36.7718 O   0  0  0  0  0  0  0  0  0  0  0  0
   39.7258  -12.5346   36.3728 H   0  0  0  0  0  0  0  0  0  0  0  0
   32.6688  -23.2620   36.2562 C   0  0  0  0  0  0  0  0  0  0  0  0
   32.5922  -22.2985   35.2425 O   0  0  0  0  0  0  0  0  0  0  0  0
   36.8231  -20.0724   36.9962 N   0  0  0  0  0  0  0  0  0  0  0  0
   36.6886  -20.6028   37.8652 H   0  0  0  0  0  0  0  0  0  0  0  0
   37.9719  -20.4424   36.1784 C   0  0  0  0  0  0  0  0  0  0  0  0
   38.2797  -21.9299   36.2669 C   0  0  0  0  0  0  0  0  0  0  0  0
   39.4405  -22.1383   37.1853 C   0  0  0  0  0  0  0  0  0  0  0  0
   40.6543  -21.5779   36.6222 N   0  0  0  0  0  0  0  0  0  0  0  0
   41.6918  -21.6723   37.6219 C   0  0  0  0  0  0  0  0  0  0  0  0
   40.4809  -20.2146   36.1929 C   0  0  0  0  0  0  0  0  0  0  0  0
   39.1623  -19.6834   36.6563 C   0  0  0  0  0  0  0  0  0  0  0  0
   30.8629  -20.3051   34.6025 O   0  0  0  0  0  0  0  0  0  0  0  0
   29.6707  -19.7307   35.1496 C   0  0  0  0  0  0  0  0  0  0  0  0
   28.9470  -20.6991   36.0246 C   0  0  0  0  0  0  0  0  0  0  0  0
   29.0627  -22.0797   35.4338 C   0  0  0  0  0  0  0  0  0  0  0  0
   28.0155  -22.9082   36.0065 N   0  0  0  0  0  0  0  0  0  0  0  0
   27.6308  -22.4039   37.3112 C   0  0  0  0  0  0  0  0  0  0  0  0
   27.1031  -23.6067   38.0340 C   0  0  0  0  0  0  0  0  0  0  0  0
   27.9694  -24.7200   37.5452 C   0  0  0  0  0  0  0  0  0  0  0  0
   28.4400  -24.2691   36.2001 C   0  0  0  0  0  0  0  0  0  0  0  0
 19 20  1  0  0  0
 20  1  1  0  0  0
  1  2  2  0  0  0
  2  3  1  0  0  0
  3  4  2  0  0  0
  4 21  1  0  0  0
 21 23  1  0  0  0
 23 24  1  0  0  0
 24 25  1  0  0  0
 25 26  1  0  0  0
 26 27  1  0  0  0
 26 28  1  0  0  0
 28 29  1  0  0  0
  4  5  1  0  0  0
  5  6  2  0  0  0
  6  7  1  0  0  0
  7  8  2  0  0  0
  8  9  1  0  0  0
  9 10  2  0  0  0
 10 30  1  0  0  0
 30 31  1  0  0  0
 31 32  1  0  0  0
 32 33  1  0  0  0
 33 34  1  0  0  0
 34 35  1  0  0  0
 35 36  1  0  0  0
 36 37  1  0  0  0
 37 38  1  0  0  0
  6 11  1  0  0  0
 11 12  2  0  0  0
 12 13  1  0  0  0
 13 14  2  0  0  0
 14 16  1  0  0  0
 16 17  1  0  0  0
 14 15  1  0  0  0
 10  1  1  0  0  0
 38 34  1  0  0  0
 15 11  1  0  0  0
  8  3  1  0  0  0
 29 23  1  0  0  0
 21 22  1  0  0  0
 17 18  1  0  0  0
M  END
> <minimizedAffinity>
-5.82022

> <CNNscore>
0.3427708149

> <CNNaffinity>
5.8363165855

> <CNN_VS>
2.0005190372

> <CNNaffinity_variance>
0.1738984585

$$$$
[H]OC([H])([H])c1oc(-c2nc3c([H])c(OC([H])([H])C([H])([H])C([H])([H])N4C([H])([H])C([H])([H])C([H])([H])C4([H])[H])c(OC([H])([H])[H])c([H])c3c(N([H])C3([H])C([H])([H])C([H])([H])N(C([H])([H])[H])C([H])([H])C3([H])[H])c2[H])c([H])c1[H]


 38 42  0  0  0  0  0  0  0  0999 V2000
   38.6955  -20.1679   35.6944 C   0  0  0  0  0  0  0  0  0  0  0  0
   37.4501  -19.7990   35.1791 C   0  0  0  0  0  0  0  0  0  0  0  0
   36.8470  -18.6039   35.4854 C   0  0  0  0  0  0  0  0  0  0  0  0
   35.6150  -18.2072   34.9937 C   0  0  0  0  0  0  0  0  0  0  0  0
   35.0721  -16.9819   35.3518 C   0  0  0  0  0  0  0  0  0  0  0  0
   35.7740  -16.1703   36.2000 C   0  0  0  0  0  0  0  0  0  0  0  0
   36.9637  -16.5741   36.6635 N   0  0  0  0  0  0  0  0  0  0  0  0
   37.5331  -17.7487   36.3483 C   0  0  0  0  0  0  0  0  0  0  0  0
   38.7672  -18.1244   36.8533 C   0  0  0  0  0  0  0  0  0  0  0  0
   39.3706  -19.3223   36.5455 C   0  0  0  0  0  0  0  0  0  0  0  0
   35.2175  -14.8614   36.5955 C   0  0  0  0  0  0  0  0  0  0  0  0
   35.8823  -13.7167   36.8935 C   0  0  0  0  0  0  0  0  0  0  0  0
   34.8966  -12.7813   37.2004 C   0  0  0  0  0  0  0  0  0  0  0  0
   33.6870  -13.4163   37.0699 C   0  0  0  0  0  0  0  0  0  0  0  0
   33.9521  -14.6359   36.7120 O   0  0  0  0  0  0  0  0  0  0  0  0
   32.3543  -12.8406   37.2888 C   0  0  0  0  0  0  0  0  0  0  0  0
   31.8182  -13.3948   38.4397 O   0  0  0  0  0  0  0  0  0  0  0  0
   31.4913  -12.6535   39.0118 H   0  0  0  0  0  0  0  0  0  0  0  0
   38.8504  -22.1496   34.2471 C   0  0  0  0  0  0  0  0  0  0  0  0
   39.2694  -21.3977   35.3521 O   0  0  0  0  0  0  0  0  0  0  0  0
   34.9189  -19.0626   34.1065 N   0  0  0  0  0  0  0  0  0  0  0  0
   35.0868  -19.0039   33.0951 H   0  0  0  0  0  0  0  0  0  0  0  0
   33.9440  -20.0524   34.5486 C   0  0  0  0  0  0  0  0  0  0  0  0
   32.9063  -20.3494   33.4762 C   0  0  0  0  0  0  0  0  0  0  0  0
   31.6407  -19.6239   33.8019 C   0  0  0  0  0  0  0  0  0  0  0  0
   31.0356  -20.1531   35.0095 N   0  0  0  0  0  0  0  0  0  0  0  0
   29.9141  -19.3099   35.3499 C   0  0  0  0  0  0  0  0  0  0  0  0
   31.9692  -20.2279   36.1030 C   0  0  0  0  0  0  0  0  0  0  0  0
   33.2422  -19.5260   35.7536 C   0  0  0  0  0  0  0  0  0  0  0  0
   40.6028  -19.7314   37.0312 O   0  0  0  0  0  0  0  0  0  0  0  0
   41.8008  -19.0550   36.6338 C   0  0  0  0  0  0  0  0  0  0  0  0
   42.6430  -18.6937   37.8117 C   0  0  0  0  0  0  0  0  0  0  0  0
   43.5153  -19.8672   38.1731 C   0  0  0  0  0  0  0  0  0  0  0  0
   43.3584  -20.8831   37.1464 N   0  0  0  0  0  0  0  0  0  0  0  0
   43.1377  -22.1825   37.7526 C   0  0  0  0  0  0  0  0  0  0  0  0
   43.6373  -23.1592   36.7309 C   0  0  0  0  0  0  0  0  0  0  0  0
   44.8091  -22.4633   36.1213 C   0  0  0  0  0  0  0  0  0  0  0  0
   44.5285  -21.0085   36.3187 C   0  0  0  0  0  0  0  0  0  0  0  0
 19 20  1  0  0  0
 20  1  1  0  0  0
  1  2  2  0  0  0
  2  3  1  0  0  0
  3  4  2  0  0  0
  4 21  1  0  0  0
 21 23  1  0  0  0
 23 24  1  0  0  0
 24 25  1  0  0  0
 25 26  1  0  0  0
 26 27  1  0  0  0
 26 28  1  0  0  0
 28 29  1  0  0  0
  4  5  1  0  0  0
  5  6  2  0  0  0
  6  7  1  0  0  0
  7  8  2  0  0  0
  8  9  1  0  0  0
  9 10  2  0  0  0
 10 30  1  0  0  0
 30 31  1  0  0  0
 31 32  1  0  0  0
 32 33  1  0  0  0
 33 34  1  0  0  0
 34 35  1  0  0  0
 35 36  1  0  0  0
 36 37  1  0  0  0
 37 38  1  0  0  0
  6 11  1  0  0  0
 11 12  2  0  0  0
 12 13  1  0  0  0
 13 14  2  0  0  0
 14 16  1  0  0  0
 16 17  1  0  0  0
 14 15  1  0  0  0
 10  1  1  0  0  0
 38 34  1  0  0  0
 15 11  1  0  0  0
  8  3  1  0  0  0
 29 23  1  0  0  0
 21 22  1  0  0  0
 17 18  1  0  0  0
M  END
> <minimizedAffinity>
-5.85956

> <CNNscore>
0.3304845989

> <CNNaffinity>
6.2155838013

> <CNN_VS>
2.0541546345

> <CNNaffinity_variance>
0.0789586902

$$$$
[H]OC([H])([H])c1oc(-c2nc3c([H])c(OC([H])([H])C([H])([H])C([H])([H])N4C([H])([H])C([H])([H])C([H])([H])C4([H])[H])c(OC([H])([H])[H])c([H])c3c(N([H])C3([H])C([H])([H])C([H])([H])N(C([H])([H])[H])C([H])([H])C3([H])[H])c2[H])c([H])c1[H]


 38 42  0  0  0  0  0  0  0  0999 V2000
   36.3282  -22.1039   37.8381 C   0  0  0  0  0  0  0  0  0  0  0  0
   37.0622  -21.2829   36.9778 C   0  0  0  0  0  0  0  0  0  0  0  0
   36.9231  -19.9170   36.9606 C   0  0  0  0  0  0  0  0  0  0  0  0
   37.6331  -19.0745   36.1220 C   0  0  0  0  0  0  0  0  0  0  0  0
   37.4346  -17.7022   36.1652 C   0  0  0  0  0  0  0  0  0  0  0  0
   36.5246  -17.1934   37.0506 C   0  0  0  0  0  0  0  0  0  0  0  0
   35.8490  -18.0267   37.8523 N   0  0  0  0  0  0  0  0  0  0  0  0
   36.0036  -19.3606   37.8504 C   0  0  0  0  0  0  0  0  0  0  0  0
   35.2813  -20.1837   38.6988 C   0  0  0  0  0  0  0  0  0  0  0  0
   35.4217  -21.5526   38.7151 C   0  0  0  0  0  0  0  0  0  0  0  0
   36.2958  -15.7364   37.1157 C   0  0  0  0  0  0  0  0  0  0  0  0
   37.1711  -14.7592   37.4622 C   0  0  0  0  0  0  0  0  0  0  0  0
   36.4586  -13.5664   37.3607 C   0  0  0  0  0  0  0  0  0  0  0  0
   35.1880  -13.8917   36.9570 C   0  0  0  0  0  0  0  0  0  0  0  0
   35.1644  -15.1839   36.8326 O   0  0  0  0  0  0  0  0  0  0  0  0
   34.0715  -12.9703   36.7118 C   0  0  0  0  0  0  0  0  0  0  0  0
   34.5864  -11.7046   36.4839 O   0  0  0  0  0  0  0  0  0  0  0  0
   34.1746  -11.3526   35.6531 H   0  0  0  0  0  0  0  0  0  0  0  0
   37.6330  -24.1211   38.3618 C   0  0  0  0  0  0  0  0  0  0  0  0
   36.5058  -23.4921   37.8180 O   0  0  0  0  0  0  0  0  0  0  0  0
   38.5782  -19.6294   35.2264 N   0  0  0  0  0  0  0  0  0  0  0  0
   38.3687  -19.6815   34.2224 H   0  0  0  0  0  0  0  0  0  0  0  0
   39.8713  -20.1525   35.6499 C   0  0  0  0  0  0  0  0  0  0  0  0
   40.5205  -19.2774   36.7120 C   0  0  0  0  0  0  0  0  0  0  0  0
   41.5794  -18.4356   36.0760 C   0  0  0  0  0  0  0  0  0  0  0  0
   42.6775  -19.2556   35.6003 N   0  0  0  0  0  0  0  0  0  0  0  0
   43.5802  -18.4036   34.8627 C   0  0  0  0  0  0  0  0  0  0  0  0
   42.2285  -20.3530   34.7835 C   0  0  0  0  0  0  0  0  0  0  0  0
   40.7747  -20.2086   34.4657 C   0  0  0  0  0  0  0  0  0  0  0  0
   34.7170  -22.4069   39.5490 O   0  0  0  0  0  0  0  0  0  0  0  0
   35.1462  -22.6226   40.8980 C   0  0  0  0  0  0  0  0  0  0  0  0
   33.9960  -22.9350   41.7961 C   0  0  0  0  0  0  0  0  0  0  0  0
   32.7104  -22.7519   41.0332 C   0  0  0  0  0  0  0  0  0  0  0  0
   31.7318  -22.1580   41.9280 N   0  0  0  0  0  0  0  0  0  0  0  0
   32.3885  -21.2962   42.8926 C   0  0  0  0  0  0  0  0  0  0  0  0
   31.4667  -21.2911   44.0749 C   0  0  0  0  0  0  0  0  0  0  0  0
   30.9180  -22.6793   44.1001 C   0  0  0  0  0  0  0  0  0  0  0  0
   31.0112  -23.1477   42.6838 C   0  0  0  0  0  0  0  0  0  0  0  0
 19 20  1  0  0  0
 20  1  1  0  0  0
  1  2  2  0  0  0
  2  3  1  0  0  0
  3  4  2  0  0  0
  4 21  1  0  0  0
 21 23  1  0  0  0
 23 24  1  0  0  0
 24 25  1  0  0  0
 25 26  1  0  0  0
 26 27  1  0  0  0
 26 28  1  0  0  0
 28 29  1  0  0  0
  4  5  1  0  0  0
  5  6  2  0  0  0
  6  7  1  0  0  0
  7  8  2  0  0  0
  8  9  1  0  0  0
  9 10  2  0  0  0
 10 30  1  0  0  0
 30 31  1  0  0  0
 31 32  1  0  0  0
 32 33  1  0  0  0
 33 34  1  0  0  0
 34 35  1  0  0  0
 35 36  1  0  0  0
 36 37  1  0  0  0
 37 38  1  0  0  0
  6 11  1  0  0  0
 11 12  2  0  0  0
 12 13  1  0  0  0
 13 14  2  0  0  0
 14 16  1  0  0  0
 16 17  1  0  0  0
 14 15  1  0  0  0
 10  1  1  0  0  0
 38 34  1  0  0  0
 15 11  1  0  0  0
  8  3  1  0  0  0
 29 23  1  0  0  0
 21 22  1  0  0  0
 17 18  1  0  0  0
M  END
> <minimizedAffinity>
-5.37872

> <CNNscore>
0.3265429437

> <CNNaffinity>
5.6797761917

> <CNN_VS>
1.8546907902

> <CNNaffinity_variance>
0.1634807736

$$$$
[H]OC([H])([H])c1oc(-c2nc3c([H])c(OC([H])([H])C([H])([H])C([H])([H])N4C([H])([H])C([H])([H])C([H])([H])C4([H])[H])c(OC([H])([H])[H])c([H])c3c(N([H])C3([H])C([H])([H])C([H])([H])N(C([H])([H])[H])C([H])([H])C3([H])[H])c2[H])c([H])c1[H]


 38 42  0  0  0  0  0  0  0  0999 V2000
   35.8818  -22.2184   37.1419 C   0  0  0  0  0  0  0  0  0  0  0  0
   36.9752  -21.3687   36.9535 C   0  0  0  0  0  0  0  0  0  0  0  0
   36.8678  -20.0009   37.0098 C   0  0  0  0  0  0  0  0  0  0  0  0
   37.9289  -19.1304   36.8276 C   0  0  0  0  0  0  0  0  0  0  0  0
   37.7382  -17.7582   36.8995 C   0  0  0  0  0  0  0  0  0  0  0  0
   36.4830  -17.2777   37.1534 C   0  0  0  0  0  0  0  0  0  0  0  0
   35.4712  -18.1378   37.3264 N   0  0  0  0  0  0  0  0  0  0  0  0
   35.6022  -19.4729   37.2670 C   0  0  0  0  0  0  0  0  0  0  0  0
   34.5252  -20.3243   37.4522 C   0  0  0  0  0  0  0  0  0  0  0  0
   34.6342  -21.6950   37.3957 C   0  0  0  0  0  0  0  0  0  0  0  0
   36.2547  -15.8215   37.2352 C   0  0  0  0  0  0  0  0  0  0  0  0
   37.1670  -14.8325   37.4114 C   0  0  0  0  0  0  0  0  0  0  0  0
   36.4360  -13.6466   37.4162 C   0  0  0  0  0  0  0  0  0  0  0  0
   35.1181  -13.9874   37.2418 C   0  0  0  0  0  0  0  0  0  0  0  0
   35.0861  -15.2816   37.1426 O   0  0  0  0  0  0  0  0  0  0  0  0
   33.9672  -13.0780   37.1785 C   0  0  0  0  0  0  0  0  0  0  0  0
   33.4252  -12.9639   38.4483 O   0  0  0  0  0  0  0  0  0  0  0  0
   33.3188  -11.9985   38.6492 H   0  0  0  0  0  0  0  0  0  0  0  0
   37.2571  -24.2155   36.7348 C   0  0  0  0  0  0  0  0  0  0  0  0
   36.0422  -23.6072   37.0750 O   0  0  0  0  0  0  0  0  0  0  0  0
   39.2189  -19.6580   36.5804 N   0  0  0  0  0  0  0  0  0  0  0  0
   39.3340  -20.6519   36.3491 H   0  0  0  0  0  0  0  0  0  0  0  0
   40.4358  -18.8573   36.6375 C   0  0  0  0  0  0  0  0  0  0  0  0
   41.2285  -18.9311   35.3410 C   0  0  0  0  0  0  0  0  0  0  0  0
   42.3790  -19.8684   35.5204 C   0  0  0  0  0  0  0  0  0  0  0  0
   43.3382  -19.3364   36.4698 N   0  0  0  0  0  0  0  0  0  0  0  0
   44.3328  -20.3543   36.7131 C   0  0  0  0  0  0  0  0  0  0  0  0
   42.7183  -18.9228   37.7018 C   0  0  0  0  0  0  0  0  0  0  0  0
   41.2918  -19.3682   37.7456 C   0  0  0  0  0  0  0  0  0  0  0  0
   33.5800  -22.5771   37.5757 O   0  0  0  0  0  0  0  0  0  0  0  0
   32.7934  -22.5342   38.7715 C   0  0  0  0  0  0  0  0  0  0  0  0
   33.5047  -23.1707   39.9189 C   0  0  0  0  0  0  0  0  0  0  0  0
   33.7121  -22.1444   41.0014 C   0  0  0  0  0  0  0  0  0  0  0  0
   35.1070  -22.1860   41.4057 N   0  0  0  0  0  0  0  0  0  0  0  0
   35.8359  -21.0790   40.8158 C   0  0  0  0  0  0  0  0  0  0  0  0
   37.2515  -21.5660   40.7365 C   0  0  0  0  0  0  0  0  0  0  0  0
   37.1076  -23.0197   40.4285 C   0  0  0  0  0  0  0  0  0  0  0  0
   35.7656  -23.3896   40.9728 C   0  0  0  0  0  0  0  0  0  0  0  0
 19 20  1  0  0  0
 20  1  1  0  0  0
  1  2  2  0  0  0
  2  3  1  0  0  0
  3  4  2  0  0  0
  4 21  1  0  0  0
 21 23  1  0  0  0
 23 24  1  0  0  0
 24 25  1  0  0  0
 25 26  1  0  0  0
 26 27  1  0  0  0
 26 28  1  0  0  0
 28 29  1  0  0  0
  4  5  1  0  0  0
  5  6  2  0  0  0
  6  7  1  0  0  0
  7  8  2  0  0  0
  8  9  1  0  0  0
  9 10  2  0  0  0
 10 30  1  0  0  0
 30 31  1  0  0  0
 31 32  1  0  0  0
 32 33  1  0  0  0
 33 34  1  0  0  0
 34 35  1  0  0  0
 35 36  1  0  0  0
 36 37  1  0  0  0
 37 38  1  0  0  0
  6 11  1  0  0  0
 11 12  2  0  0  0
 12 13  1  0  0  0
 13 14  2  0  0  0
 14 16  1  0  0  0
 16 17  1  0  0  0
 14 15  1  0  0  0
 10  1  1  0  0  0
 38 34  1  0  0  0
 15 11  1  0  0  0
  8  3  1  0  0  0
 29 23  1  0  0  0
 21 22  1  0  0  0
 17 18  1  0  0  0
M  END
> <minimizedAffinity>
-5.29592

> <CNNscore>
0.3100096881

> <CNNaffinity>
5.8326463699

> <CNN_VS>
1.8081768751

> <CNNaffinity_variance>
0.1817146391

$$$$
[H]c1c(-c2nc3c([H])c(OC([H])([H])C([H])([H])C([H])([H])N4C([H])([H])C([H])([H])C([H])([H])C4([H])[H])c(OC([H])([H])[H])c([H])c3c(N([H])C([H])([H])C3([H])C4([H])C([H])([H])N(C([H])([H])[H])C([H])([H])C3([H])C([H])([H])C4([H])[H])c2[H])oc(C([H])([H])[H])c1[H]


 39 44  0  0  0  0  0  0  0  0999 V2000
   36.3660  -13.9072   37.0602 C   0  0  0  0  0  0  0  0  0  0  0  0
   36.7557  -15.1869   36.7244 C   0  0  0  0  0  0  0  0  0  0  0  0
   35.8536  -16.1330   36.3032 C   0  0  0  0  0  0  0  0  0  0  0  0
   36.2871  -17.4090   35.9848 C   0  0  0  0  0  0  0  0  0  0  0  0
   35.2696  -18.2724   35.5805 C   0  0  0  0  0  0  0  0  0  0  0  0
   33.9504  -17.9385   35.4895 C   0  0  0  0  0  0  0  0  0  0  0  0
   33.5898  -16.6683   35.8175 N   0  0  0  0  0  0  0  0  0  0  0  0
   34.5131  -15.7813   36.2165 C   0  0  0  0  0  0  0  0  0  0  0  0
   34.0906  -14.4994   36.5475 C   0  0  0  0  0  0  0  0  0  0  0  0
   35.0040  -13.5727   36.9652 C   0  0  0  0  0  0  0  0  0  0  0  0
   32.9081  -18.8570   35.0623 C   0  0  0  0  0  0  0  0  0  0  0  0
   32.9455  -19.7653   34.0285 C   0  0  0  0  0  0  0  0  0  0  0  0
   31.7305  -20.3980   34.0186 C   0  0  0  0  0  0  0  0  0  0  0  0
   31.0045  -19.8516   35.0432 C   0  0  0  0  0  0  0  0  0  0  0  0
   29.6117  -20.2004   35.4513 C   0  0  0  0  0  0  0  0  0  0  0  0
   31.7309  -18.9455   35.6371 O   0  0  0  0  0  0  0  0  0  0  0  0
   38.6659  -13.1683   37.5074 C   0  0  0  0  0  0  0  0  0  0  0  0
   37.2882  -12.9635   37.4813 O   0  0  0  0  0  0  0  0  0  0  0  0
   37.6367  -17.7933   36.0055 N   0  0  0  0  0  0  0  0  0  0  0  0
   38.3519  -17.0338   36.2183 H   0  0  0  0  0  0  0  0  0  0  0  0
   38.2101  -19.0956   35.7577 C   0  0  0  0  0  0  0  0  0  0  0  0
   38.6786  -19.6967   37.0177 C   0  0  0  0  0  0  0  0  0  0  0  0
   40.0873  -20.2319   37.0378 C   0  0  0  0  0  0  0  0  0  0  0  0
   40.1996  -20.7521   38.4529 C   0  0  0  0  0  0  0  0  0  0  0  0
   38.8057  -21.0869   38.8662 C   0  0  0  0  0  0  0  0  0  0  0  0
   37.9550  -20.8802   37.5712 C   0  0  0  0  0  0  0  0  0  0  0  0
   38.1605  -22.1165   36.7872 C   0  0  0  0  0  0  0  0  0  0  0  0
   39.2065  -22.1834   35.8718 N   0  0  0  0  0  0  0  0  0  0  0  0
   39.1423  -23.0003   34.7416 C   0  0  0  0  0  0  0  0  0  0  0  0
   40.3404  -21.3647   36.0957 C   0  0  0  0  0  0  0  0  0  0  0  0
   34.6879  -12.2927   37.3164 O   0  0  0  0  0  0  0  0  0  0  0  0
   33.5263  -11.6010   37.3988 C   0  0  0  0  0  0  0  0  0  0  0  0
   32.4151  -12.0391   38.2348 C   0  0  0  0  0  0  0  0  0  0  0  0
   31.0655  -12.1158   37.6593 C   0  0  0  0  0  0  0  0  0  0  0  0
   29.9624  -11.6761   38.3657 N   0  0  0  0  0  0  0  0  0  0  0  0
   28.9765  -10.8350   37.8442 C   0  0  0  0  0  0  0  0  0  0  0  0
   27.6313  -11.5443   38.0484 C   0  0  0  0  0  0  0  0  0  0  0  0
   27.8869  -12.5273   39.1531 C   0  0  0  0  0  0  0  0  0  0  0  0
   29.3659  -12.7285   39.1388 C   0  0  0  0  0  0  0  0  0  0  0  0
 17 18  1  0  0  0
 18  1  1  0  0  0
  1  2  2  0  0  0
  2  3  1  0  0  0
  3  4  2  0  0  0
  4 19  1  0  0  0
 19 21  1  0  0  0
 21 22  1  0  0  0
 22 23  1  0  0  0
 23 24  1  0  0  0
 24 25  1  0  0  0
 25 26  1  0  0  0
 26 27  1  0  0  0
 27 28  1  0  0  0
 28 29  1  0  0  0
 28 30  1  0  0  0
  4  5  1  0  0  0
  5  6  2  0  0  0
  6  7  1  0  0  0
  7  8  2  0  0  0
  8  9  1  0  0  0
  9 10  2  0  0  0
 10 31  1  0  0  0
 31 32  1  0  0  0
 32 33  1  0  0  0
 33 34  1  0  0  0
 34 35  1  0  0  0
 35 36  1  0  0  0
 36 37  1  0  0  0
 37 38  1  0  0  0
 38 39  1  0  0  0
  6 11  1  0  0  0
 11 12  2  0  0  0
 12 13  1  0  0  0
 13 14  2  0  0  0
 14 15  1  0  0  0
 14 16  1  0  0  0
 10  1  1  0  0  0
 39 35  1  0  0  0
 16 11  1  0  0  0
  8  3  1  0  0  0
 26 22  1  0  0  0
 30 23  1  0  0  0
 19 20  1  0  0  0
M  END
> <minimizedAffinity>
-8.46961

> <CNNscore>
0.7634494901

> <CNNaffinity>
7.3852744102

> <CNN_VS>
5.6382842064

> <CNNaffinity_variance>
0.0738201886

$$$$
[H]c1c(-c2nc3c([H])c(OC([H])([H])C([H])([H])C([H])([H])N4C([H])([H])C([H])([H])C([H])([H])C4([H])[H])c(OC([H])([H])[H])c([H])c3c(N([H])C([H])([H])C3([H])C4([H])C([H])([H])N(C([H])([H])[H])C([H])([H])C3([H])C([H])([H])C4([H])[H])c2[H])oc(C([H])([H])[H])c1[H]


 39 44  0  0  0  0  0  0  0  0999 V2000
   36.1548  -14.0049   36.6145 C   0  0  0  0  0  0  0  0  0  0  0  0
   36.5958  -15.2984   36.4290 C   0  0  0  0  0  0  0  0  0  0  0  0
   35.7352  -16.3193   36.1074 C   0  0  0  0  0  0  0  0  0  0  0  0
   36.2197  -17.6056   35.9393 C   0  0  0  0  0  0  0  0  0  0  0  0
   35.2405  -18.5468   35.6240 C   0  0  0  0  0  0  0  0  0  0  0  0
   33.9115  -18.2755   35.4820 C   0  0  0  0  0  0  0  0  0  0  0  0
   33.4999  -16.9911   35.6611 N   0  0  0  0  0  0  0  0  0  0  0  0
   34.3842  -16.0306   35.9675 C   0  0  0  0  0  0  0  0  0  0  0  0
   33.9104  -14.7367   36.1476 C   0  0  0  0  0  0  0  0  0  0  0  0
   34.7831  -13.7350   36.4680 C   0  0  0  0  0  0  0  0  0  0  0  0
   32.9099  -19.2750   35.1500 C   0  0  0  0  0  0  0  0  0  0  0  0
   32.9949  -20.2901   34.2239 C   0  0  0  0  0  0  0  0  0  0  0  0
   31.8044  -20.9661   34.2730 C   0  0  0  0  0  0  0  0  0  0  0  0
   31.0449  -20.3379   35.2238 C   0  0  0  0  0  0  0  0  0  0  0  0
   29.6606  -20.6925   35.6551 C   0  0  0  0  0  0  0  0  0  0  0  0
   31.7290  -19.3444   35.7200 O   0  0  0  0  0  0  0  0  0  0  0  0
   38.2822  -13.1816   37.5264 C   0  0  0  0  0  0  0  0  0  0  0  0
   37.0356  -12.9855   36.9364 O   0  0  0  0  0  0  0  0  0  0  0  0
   37.5819  -17.9337   36.0174 N   0  0  0  0  0  0  0  0  0  0  0  0
   38.2565  -17.1434   36.2501 H   0  0  0  0  0  0  0  0  0  0  0  0
   38.2176  -19.2134   35.8067 C   0  0  0  0  0  0  0  0  0  0  0  0
   39.2100  -19.4721   36.8633 C   0  0  0  0  0  0  0  0  0  0  0  0
   40.5736  -18.8551   36.6867 C   0  0  0  0  0  0  0  0  0  0  0  0
   41.2903  -19.3292   37.9305 C   0  0  0  0  0  0  0  0  0  0  0  0
   40.6135  -20.6004   38.3203 C   0  0  0  0  0  0  0  0  0  0  0  0
   39.6105  -20.8811   37.1548 C   0  0  0  0  0  0  0  0  0  0  0  0
   40.4349  -21.4917   36.0905 C   0  0  0  0  0  0  0  0  0  0  0  0
   41.0362  -20.6778   35.1352 N   0  0  0  0  0  0  0  0  0  0  0  0
   41.3160  -21.1396   33.8480 C   0  0  0  0  0  0  0  0  0  0  0  0
   41.3298  -19.3388   35.4913 C   0  0  0  0  0  0  0  0  0  0  0  0
   34.4153  -12.4366   36.6694 O   0  0  0  0  0  0  0  0  0  0  0  0
   33.7958  -11.7819   37.6805 C   0  0  0  0  0  0  0  0  0  0  0  0
   32.4724  -12.1612   38.1603 C   0  0  0  0  0  0  0  0  0  0  0  0
   31.2884  -11.8123   37.3633 C   0  0  0  0  0  0  0  0  0  0  0  0
   30.0128  -12.0337   37.8458 N   0  0  0  0  0  0  0  0  0  0  0  0
   29.7283  -12.6052   39.0884 C   0  0  0  0  0  0  0  0  0  0  0  0
   28.8068  -11.6270   39.8288 C   0  0  0  0  0  0  0  0  0  0  0  0
   28.1987  -10.7870   38.7441 C   0  0  0  0  0  0  0  0  0  0  0  0
   29.1435  -10.9188   37.5961 C   0  0  0  0  0  0  0  0  0  0  0  0
 17 18  1  0  0  0
 18  1  1  0  0  0
  1  2  2  0  0  0
  2  3  1  0  0  0
  3  4  2  0  0  0
  4 19  1  0  0  0
 19 21  1  0  0  0
 21 22  1  0  0  0
 22 23  1  0  0  0
 23 24  1  0  0  0
 24 25  1  0  0  0
 25 26  1  0  0  0
 26 27  1  0  0  0
 27 28  1  0  0  0
 28 29  1  0  0  0
 28 30  1  0  0  0
  4  5  1  0  0  0
  5  6  2  0  0  0
  6  7  1  0  0  0
  7  8  2  0  0  0
  8  9  1  0  0  0
  9 10  2  0  0  0
 10 31  1  0  0  0
 31 32  1  0  0  0
 32 33  1  0  0  0
 33 34  1  0  0  0
 34 35  1  0  0  0
 35 36  1  0  0  0
 36 37  1  0  0  0
 37 38  1  0  0  0
 38 39  1  0  0  0
  6 11  1  0  0  0
 11 12  2  0  0  0
 12 13  1  0  0  0
 13 14  2  0  0  0
 14 15  1  0  0  0
 14 16  1  0  0  0
 10  1  1  0  0  0
 39 35  1  0  0  0
 16 11  1  0  0  0
  8  3  1  0  0  0
 26 22  1  0  0  0
 30 23  1  0  0  0
 19 20  1  0  0  0
M  END
> <minimizedAffinity>
-8.90227

> <CNNscore>
0.6679377556

> <CNNaffinity>
7.3333954811

> <CNN_VS>
4.8982515335

> <CNNaffinity_variance>
0.0796055421

$$$$
[H]c1c(-c2nc3c([H])c(OC([H])([H])C([H])([H])C([H])([H])N4C([H])([H])C([H])([H])C([H])([H])C4([H])[H])c(OC([H])([H])[H])c([H])c3c(N([H])C([H])([H])C3([H])C4([H])C([H])([H])N(C([H])([H])[H])C([H])([H])C3([H])C([H])([H])C4([H])[H])c2[H])oc(C([H])([H])[H])c1[H]


 39 44  0  0  0  0  0  0  0  0999 V2000
   36.2247  -14.1156   37.0352 C   0  0  0  0  0  0  0  0  0  0  0  0
   36.5800  -15.4482   37.0370 C   0  0  0  0  0  0  0  0  0  0  0  0
   35.7209  -16.4286   36.6046 C   0  0  0  0  0  0  0  0  0  0  0  0
   36.1154  -17.7557   36.6324 C   0  0  0  0  0  0  0  0  0  0  0  0
   35.1465  -18.6480   36.1749 C   0  0  0  0  0  0  0  0  0  0  0  0
   33.9067  -18.2957   35.7291 C   0  0  0  0  0  0  0  0  0  0  0  0
   33.5807  -16.9748   35.7281 N   0  0  0  0  0  0  0  0  0  0  0  0
   34.4607  -16.0574   36.1548 C   0  0  0  0  0  0  0  0  0  0  0  0
   34.0747  -14.7224   36.1406 C   0  0  0  0  0  0  0  0  0  0  0  0
   34.9442  -13.7620   36.5758 C   0  0  0  0  0  0  0  0  0  0  0  0
   32.9145  -19.2458   35.2543 C   0  0  0  0  0  0  0  0  0  0  0  0
   33.0118  -20.1203   34.1956 C   0  0  0  0  0  0  0  0  0  0  0  0
   31.8264  -20.8049   34.1425 C   0  0  0  0  0  0  0  0  0  0  0  0
   31.0574  -20.3216   35.1675 C   0  0  0  0  0  0  0  0  0  0  0  0
   29.6739  -20.7429   35.5369 C   0  0  0  0  0  0  0  0  0  0  0  0
   31.7315  -19.4028   35.8021 O   0  0  0  0  0  0  0  0  0  0  0  0
   38.4906  -13.2620   37.4506 C   0  0  0  0  0  0  0  0  0  0  0  0
   37.1033  -13.1380   37.4725 O   0  0  0  0  0  0  0  0  0  0  0  0
   37.3961  -18.1722   37.0270 N   0  0  0  0  0  0  0  0  0  0  0  0
   37.9111  -17.5546   37.7249 H   0  0  0  0  0  0  0  0  0  0  0  0
   38.1403  -19.3345   36.6013 C   0  0  0  0  0  0  0  0  0  0  0  0
   38.7724  -19.0873   35.2946 C   0  0  0  0  0  0  0  0  0  0  0  0
   38.4882  -20.0818   34.1984 C   0  0  0  0  0  0  0  0  0  0  0  0
   39.2851  -19.5094   33.0482 C   0  0  0  0  0  0  0  0  0  0  0  0
   40.3936  -18.7345   33.6781 C   0  0  0  0  0  0  0  0  0  0  0  0
   40.2625  -19.0385   35.2057 C   0  0  0  0  0  0  0  0  0  0  0  0
   40.9071  -20.3571   35.3816 C   0  0  0  0  0  0  0  0  0  0  0  0
   40.1435  -21.5152   35.2701 N   0  0  0  0  0  0  0  0  0  0  0  0
   40.4826  -22.6867   35.9494 C   0  0  0  0  0  0  0  0  0  0  0  0
   38.9766  -21.4686   34.4688 C   0  0  0  0  0  0  0  0  0  0  0  0
   34.6573  -12.4284   36.6051 O   0  0  0  0  0  0  0  0  0  0  0  0
   33.8451  -11.6590   37.3687 C   0  0  0  0  0  0  0  0  0  0  0  0
   32.6678  -12.1954   38.0408 C   0  0  0  0  0  0  0  0  0  0  0  0
   31.3415  -11.9988   37.4399 C   0  0  0  0  0  0  0  0  0  0  0  0
   30.2677  -11.5805   38.2021 N   0  0  0  0  0  0  0  0  0  0  0  0
   29.2253  -10.7826   37.7243 C   0  0  0  0  0  0  0  0  0  0  0  0
   27.9189  -11.5305   38.0211 C   0  0  0  0  0  0  0  0  0  0  0  0
   28.2716  -12.4817   39.1269 C   0  0  0  0  0  0  0  0  0  0  0  0
   29.7530  -12.6354   39.0288 C   0  0  0  0  0  0  0  0  0  0  0  0
 17 18  1  0  0  0
 18  1  1  0  0  0
  1  2  2  0  0  0
  2  3  1  0  0  0
  3  4  2  0  0  0
  4 19  1  0  0  0
 19 21  1  0  0  0
 21 22  1  0  0  0
 22 23  1  0  0  0
 23 24  1  0  0  0
 24 25  1  0  0  0
 25 26  1  0  0  0
 26 27  1  0  0  0
 27 28  1  0  0  0
 28 29  1  0  0  0
 28 30  1  0  0  0
  4  5  1  0  0  0
  5  6  2  0  0  0
  6  7  1  0  0  0
  7  8  2  0  0  0
  8  9  1  0  0  0
  9 10  2  0  0  0
 10 31  1  0  0  0
 31 32  1  0  0  0
 32 33  1  0  0  0
 33 34  1  0  0  0
 34 35  1  0  0  0
 35 36  1  0  0  0
 36 37  1  0  0  0
 37 38  1  0  0  0
 38 39  1  0  0  0
  6 11  1  0  0  0
 11 12  2  0  0  0
 12 13  1  0  0  0
 13 14  2  0  0  0
 14 15  1  0  0  0
 14 16  1  0  0  0
 10  1  1  0  0  0
 39 35  1  0  0  0
 16 11  1  0  0  0
  8  3  1  0  0  0
 26 22  1  0  0  0
 30 23  1  0  0  0
 19 20  1  0  0  0
M  END
> <minimizedAffinity>
-8.80277

> <CNNscore>
0.6199003458

> <CNNaffinity>
7.2630605698

> <CNN_VS>
4.5023736954

> <CNNaffinity_variance>
0.1035248488

$$$$
[H]c1c(-c2nc3c([H])c(OC([H])([H])C([H])([H])C([H])([H])N4C([H])([H])C([H])([H])C([H])([H])C4([H])[H])c(OC([H])([H])[H])c([H])c3c(N([H])C([H])([H])C3([H])C4([H])C([H])([H])N(C([H])([H])[H])C([H])([H])C3([H])C([H])([H])C4([H])[H])c2[H])oc(C([H])([H])[H])c1[H]


 39 44  0  0  0  0  0  0  0  0999 V2000
   32.4008  -20.4836   34.3164 C   0  0  0  0  0  0  0  0  0  0  0  0
   33.7380  -20.1713   34.1876 C   0  0  0  0  0  0  0  0  0  0  0  0
   34.2573  -18.9933   34.6661 C   0  0  0  0  0  0  0  0  0  0  0  0
   35.6046  -18.7159   34.5070 C   0  0  0  0  0  0  0  0  0  0  0  0
   35.9987  -17.4848   35.0296 C   0  0  0  0  0  0  0  0  0  0  0  0
   35.1702  -16.5977   35.6516 C   0  0  0  0  0  0  0  0  0  0  0  0
   33.8568  -16.9301   35.7751 N   0  0  0  0  0  0  0  0  0  0  0  0
   33.4033  -18.0975   35.2957 C   0  0  0  0  0  0  0  0  0  0  0  0
   32.0514  -18.3849   35.4409 C   0  0  0  0  0  0  0  0  0  0  0  0
   31.5543  -19.5624   34.9572 C   0  0  0  0  0  0  0  0  0  0  0  0
   35.6065  -15.3204   36.1909 C   0  0  0  0  0  0  0  0  0  0  0  0
   34.8715  -14.1669   36.3471 C   0  0  0  0  0  0  0  0  0  0  0  0
   35.7147  -13.2359   36.8939 C   0  0  0  0  0  0  0  0  0  0  0  0
   36.9251  -13.8576   37.0482 C   0  0  0  0  0  0  0  0  0  0  0  0
   38.1794  -13.2701   37.6046 C   0  0  0  0  0  0  0  0  0  0  0  0
   36.8243  -15.0865   36.6227 O   0  0  0  0  0  0  0  0  0  0  0  0
   31.9053  -22.8801   34.5326 C   0  0  0  0  0  0  0  0  0  0  0  0
   31.8926  -21.6770   33.8305 O   0  0  0  0  0  0  0  0  0  0  0  0
   36.5141  -19.6132   33.9265 N   0  0  0  0  0  0  0  0  0  0  0  0
   36.1071  -20.3930   33.3265 H   0  0  0  0  0  0  0  0  0  0  0  0
   37.9536  -19.6429   34.0412 C   0  0  0  0  0  0  0  0  0  0  0  0
   38.3555  -20.3770   35.2528 C   0  0  0  0  0  0  0  0  0  0  0  0
   39.0473  -19.5864   36.3334 C   0  0  0  0  0  0  0  0  0  0  0  0
   39.2964  -20.6478   37.3808 C   0  0  0  0  0  0  0  0  0  0  0  0
   39.3705  -21.9364   36.6325 C   0  0  0  0  0  0  0  0  0  0  0  0
   39.3120  -21.5171   35.1278 C   0  0  0  0  0  0  0  0  0  0  0  0
   40.6914  -21.0965   34.8026 C   0  0  0  0  0  0  0  0  0  0  0  0
   41.0615  -19.7657   34.9717 N   0  0  0  0  0  0  0  0  0  0  0  0
   42.0654  -19.1788   34.1995 C   0  0  0  0  0  0  0  0  0  0  0  0
   40.3620  -18.9975   35.9343 C   0  0  0  0  0  0  0  0  0  0  0  0
   30.2440  -19.9327   35.0464 O   0  0  0  0  0  0  0  0  0  0  0  0
   29.4691  -20.4099   36.0496 C   0  0  0  0  0  0  0  0  0  0  0  0
   28.6974  -21.6402   35.9216 C   0  0  0  0  0  0  0  0  0  0  0  0
   28.9647  -22.7582   36.8368 C   0  0  0  0  0  0  0  0  0  0  0  0
   29.3538  -22.5335   38.1433 N   0  0  0  0  0  0  0  0  0  0  0  0
   28.5085  -22.6527   39.2490 C   0  0  0  0  0  0  0  0  0  0  0  0
   29.1829  -23.6276   40.2232 C   0  0  0  0  0  0  0  0  0  0  0  0
   30.6331  -23.6032   39.8378 C   0  0  0  0  0  0  0  0  0  0  0  0
   30.6364  -23.1121   38.4282 C   0  0  0  0  0  0  0  0  0  0  0  0
 17 18  1  0  0  0
 18  1  1  0  0  0
  1  2  2  0  0  0
  2  3  1  0  0  0
  3  4  2  0  0  0
  4 19  1  0  0  0
 19 21  1  0  0  0
 21 22  1  0  0  0
 22 23  1  0  0  0
 23 24  1  0  0  0
 24 25  1  0  0  0
 25 26  1  0  0  0
 26 27  1  0  0  0
 27 28  1  0  0  0
 28 29  1  0  0  0
 28 30  1  0  0  0
  4  5  1  0  0  0
  5  6  2  0  0  0
  6  7  1  0  0  0
  7  8  2  0  0  0
  8  9  1  0  0  0
  9 10  2  0  0  0
 10 31  1  0  0  0
 31 32  1  0  0  0
 32 33  1  0  0  0
 33 34  1  0  0  0
 34 35  1  0  0  0
 35 36  1  0  0  0
 36 37  1  0  0  0
 37 38  1  0  0  0
 38 39  1  0  0  0
  6 11  1  0  0  0
 11 12  2  0  0  0
 12 13  1  0  0  0
 13 14  2  0  0  0
 14 15  1  0  0  0
 14 16  1  0  0  0
 10  1  1  0  0  0
 39 35  1  0  0  0
 16 11  1  0  0  0
  8  3  1  0  0  0
 26 22  1  0  0  0
 30 23  1  0  0  0
 19 20  1  0  0  0
M  END
> <minimizedAffinity>
-7.28264

> <CNNscore>
0.5504665971

> <CNNaffinity>
6.6240873337

> <CNN_VS>
3.6463387012

> <CNNaffinity_variance>
0.2441309392

$$$$
[H]c1c(-c2nc3c([H])c(OC([H])([H])C([H])([H])C([H])([H])N4C([H])([H])C([H])([H])C([H])([H])C4([H])[H])c(OC([H])([H])[H])c([H])c3c(N([H])C([H])([H])C3([H])C4([H])C([H])([H])N(C([H])([H])[H])C([H])([H])C3([H])C([H])([H])C4([H])[H])c2[H])oc(C([H])([H])[H])c1[H]


 39 44  0  0  0  0  0  0  0  0999 V2000
   32.6425  -20.5386   34.4649 C   0  0  0  0  0  0  0  0  0  0  0  0
   33.9532  -20.1590   34.2652 C   0  0  0  0  0  0  0  0  0  0  0  0
   34.4429  -18.9655   34.7366 C   0  0  0  0  0  0  0  0  0  0  0  0
   35.7636  -18.6198   34.5052 C   0  0  0  0  0  0  0  0  0  0  0  0
   36.1284  -17.3802   35.0292 C   0  0  0  0  0  0  0  0  0  0  0  0
   35.2966  -16.5458   35.7162 C   0  0  0  0  0  0  0  0  0  0  0  0
   34.0101  -16.9442   35.9089 N   0  0  0  0  0  0  0  0  0  0  0  0
   33.5856  -18.1239   35.4329 C   0  0  0  0  0  0  0  0  0  0  0  0
   32.2599  -18.4796   35.6504 C   0  0  0  0  0  0  0  0  0  0  0  0
   31.7920  -19.6714   35.1724 C   0  0  0  0  0  0  0  0  0  0  0  0
   35.7023  -15.2583   36.2552 C   0  0  0  0  0  0  0  0  0  0  0  0
   34.9452  -14.1169   36.3936 C   0  0  0  0  0  0  0  0  0  0  0  0
   35.7636  -13.1687   36.9484 C   0  0  0  0  0  0  0  0  0  0  0  0
   36.9819  -13.7686   37.1250 C   0  0  0  0  0  0  0  0  0  0  0  0
   38.2170  -13.1565   37.6977 C   0  0  0  0  0  0  0  0  0  0  0  0
   36.9090  -15.0012   36.7047 O   0  0  0  0  0  0  0  0  0  0  0  0
   32.1261  -22.9262   34.7252 C   0  0  0  0  0  0  0  0  0  0  0  0
   32.1641  -21.7467   33.9851 O   0  0  0  0  0  0  0  0  0  0  0  0
   36.6792  -19.4611   33.8547 N   0  0  0  0  0  0  0  0  0  0  0  0
   36.5295  -19.6244   32.8133 H   0  0  0  0  0  0  0  0  0  0  0  0
   37.8109  -20.1668   34.4091 C   0  0  0  0  0  0  0  0  0  0  0  0
   39.0538  -19.7466   33.7404 C   0  0  0  0  0  0  0  0  0  0  0  0
   40.0993  -20.8076   33.5112 C   0  0  0  0  0  0  0  0  0  0  0  0
   41.1924  -20.0205   32.8248 C   0  0  0  0  0  0  0  0  0  0  0  0
   41.0237  -18.6136   33.2918 C   0  0  0  0  0  0  0  0  0  0  0  0
   39.9020  -18.6952   34.3773 C   0  0  0  0  0  0  0  0  0  0  0  0
   40.5956  -19.1570   35.5983 C   0  0  0  0  0  0  0  0  0  0  0  0
   40.6947  -20.5206   35.8578 N   0  0  0  0  0  0  0  0  0  0  0  0
   40.7877  -21.0156   37.1598 C   0  0  0  0  0  0  0  0  0  0  0  0
   40.6622  -21.4117   34.7574 C   0  0  0  0  0  0  0  0  0  0  0  0
   30.5085  -20.1068   35.3300 O   0  0  0  0  0  0  0  0  0  0  0  0
   29.3186  -19.4819   35.4976 C   0  0  0  0  0  0  0  0  0  0  0  0
   28.4783  -19.7049   36.6678 C   0  0  0  0  0  0  0  0  0  0  0  0
   28.0495  -21.0708   36.9987 C   0  0  0  0  0  0  0  0  0  0  0  0
   27.2563  -21.3223   38.1017 N   0  0  0  0  0  0  0  0  0  0  0  0
   27.3755  -22.4500   38.9175 C   0  0  0  0  0  0  0  0  0  0  0  0
   27.5544  -21.9438   40.3549 C   0  0  0  0  0  0  0  0  0  0  0  0
   27.0013  -20.5489   40.3352 C   0  0  0  0  0  0  0  0  0  0  0  0
   27.0575  -20.1453   38.8992 C   0  0  0  0  0  0  0  0  0  0  0  0
 17 18  1  0  0  0
 18  1  1  0  0  0
  1  2  2  0  0  0
  2  3  1  0  0  0
  3  4  2  0  0  0
  4 19  1  0  0  0
 19 21  1  0  0  0
 21 22  1  0  0  0
 22 23  1  0  0  0
 23 24  1  0  0  0
 24 25  1  0  0  0
 25 26  1  0  0  0
 26 27  1  0  0  0
 27 28  1  0  0  0
 28 29  1  0  0  0
 28 30  1  0  0  0
  4  5  1  0  0  0
  5  6  2  0  0  0
  6  7  1  0  0  0
  7  8  2  0  0  0
  8  9  1  0  0  0
  9 10  2  0  0  0
 10 31  1  0  0  0
 31 32  1  0  0  0
 32 33  1  0  0  0
 33 34  1  0  0  0
 34 35  1  0  0  0
 35 36  1  0  0  0
 36 37  1  0  0  0
 37 38  1  0  0  0
 38 39  1  0  0  0
  6 11  1  0  0  0
 11 12  2  0  0  0
 12 13  1  0  0  0
 13 14  2  0  0  0
 14 15  1  0  0  0
 14 16  1  0  0  0
 10  1  1  0  0  0
 39 35  1  0  0  0
 16 11  1  0  0  0
  8  3  1  0  0  0
 26 22  1  0  0  0
 30 23  1  0  0  0
 19 20  1  0  0  0
M  END
> <minimizedAffinity>
-6.71371

> <CNNscore>
0.4592492580

> <CNNaffinity>
6.6864509583

> <CNN_VS>
3.0707476139

> <CNNaffinity_variance>
0.0348830968

$$$$
[H]c1c(-c2nc3c([H])c(OC([H])([H])C([H])([H])C([H])([H])N4C([H])([H])C([H])([H])C([H])([H])C4([H])[H])c(OC([H])([H])[H])c([H])c3c(N([H])C([H])([H])C3([H])C4([H])C([H])([H])N(C([H])([H])[H])C([H])([H])C3([H])C([H])([H])C4([H])[H])c2[H])oc(C([H])([H])[H])c1[H]


 39 44  0  0  0  0  0  0  0  0999 V2000
   32.4609  -20.7575   34.5329 C   0  0  0  0  0  0  0  0  0  0  0  0
   33.7849  -20.3718   34.5467 C   0  0  0  0  0  0  0  0  0  0  0  0
   34.1705  -19.1149   34.9441 C   0  0  0  0  0  0  0  0  0  0  0  0
   35.5107  -18.7667   34.9336 C   0  0  0  0  0  0  0  0  0  0  0  0
   35.7634  -17.4606   35.3513 C   0  0  0  0  0  0  0  0  0  0  0  0
   34.8112  -16.5672   35.7454 C   0  0  0  0  0  0  0  0  0  0  0  0
   33.5123  -16.9717   35.7320 N   0  0  0  0  0  0  0  0  0  0  0  0
   33.1915  -18.2138   35.3412 C   0  0  0  0  0  0  0  0  0  0  0  0
   31.8492  -18.5739   35.3385 C   0  0  0  0  0  0  0  0  0  0  0  0
   31.4863  -19.8294   34.9389 C   0  0  0  0  0  0  0  0  0  0  0  0
   35.1010  -15.2106   36.1795 C   0  0  0  0  0  0  0  0  0  0  0  0
   36.3174  -14.5665   36.2042 C   0  0  0  0  0  0  0  0  0  0  0  0
   36.0844  -13.3076   36.6917 C   0  0  0  0  0  0  0  0  0  0  0  0
   34.7402  -13.2359   36.9434 C   0  0  0  0  0  0  0  0  0  0  0  0
   33.9825  -12.0700   37.4861 C   0  0  0  0  0  0  0  0  0  0  0  0
   34.1918  -14.3770   36.6295 O   0  0  0  0  0  0  0  0  0  0  0  0
   32.0277  -23.1343   34.9781 C   0  0  0  0  0  0  0  0  0  0  0  0
   32.0881  -22.0297   34.1316 O   0  0  0  0  0  0  0  0  0  0  0  0
   36.5377  -19.6600   34.5925 N   0  0  0  0  0  0  0  0  0  0  0  0
   36.3985  -20.2426   33.7122 H   0  0  0  0  0  0  0  0  0  0  0  0
   37.7766  -19.9218   35.2872 C   0  0  0  0  0  0  0  0  0  0  0  0
   38.8806  -20.0753   34.3249 C   0  0  0  0  0  0  0  0  0  0  0  0
   39.8150  -21.2387   34.5360 C   0  0  0  0  0  0  0  0  0  0  0  0
   40.7843  -21.0683   33.3884 C   0  0  0  0  0  0  0  0  0  0  0  0
   40.7701  -19.6113   33.0678 C   0  0  0  0  0  0  0  0  0  0  0  0
   39.8809  -18.9752   34.1850 C   0  0  0  0  0  0  0  0  0  0  0  0
   40.7807  -18.8448   35.3506 C   0  0  0  0  0  0  0  0  0  0  0  0
   40.8712  -19.8869   36.2683 N   0  0  0  0  0  0  0  0  0  0  0  0
   41.1971  -19.6607   37.6067 C   0  0  0  0  0  0  0  0  0  0  0  0
   40.5857  -21.1985   35.8164 C   0  0  0  0  0  0  0  0  0  0  0  0
   30.1974  -20.2751   34.8967 O   0  0  0  0  0  0  0  0  0  0  0  0
   29.1984  -20.3476   35.8086 C   0  0  0  0  0  0  0  0  0  0  0  0
   28.7704  -21.6104   36.3982 C   0  0  0  0  0  0  0  0  0  0  0  0
   28.3970  -22.7272   35.5195 C   0  0  0  0  0  0  0  0  0  0  0  0
   28.3599  -24.0251   35.9917 N   0  0  0  0  0  0  0  0  0  0  0  0
   28.7594  -25.1432   35.2558 C   0  0  0  0  0  0  0  0  0  0  0  0
   29.8083  -25.8806   36.0986 C   0  0  0  0  0  0  0  0  0  0  0  0
   29.5599  -25.4137   37.5030 C   0  0  0  0  0  0  0  0  0  0  0  0
   28.8356  -24.1183   37.3430 C   0  0  0  0  0  0  0  0  0  0  0  0
 17 18  1  0  0  0
 18  1  1  0  0  0
  1  2  2  0  0  0
  2  3  1  0  0  0
  3  4  2  0  0  0
  4 19  1  0  0  0
 19 21  1  0  0  0
 21 22  1  0  0  0
 22 23  1  0  0  0
 23 24  1  0  0  0
 24 25  1  0  0  0
 25 26  1  0  0  0
 26 27  1  0  0  0
 27 28  1  0  0  0
 28 29  1  0  0  0
 28 30  1  0  0  0
  4  5  1  0  0  0
  5  6  2  0  0  0
  6  7  1  0  0  0
  7  8  2  0  0  0
  8  9  1  0  0  0
  9 10  2  0  0  0
 10 31  1  0  0  0
 31 32  1  0  0  0
 32 33  1  0  0  0
 33 34  1  0  0  0
 34 35  1  0  0  0
 35 36  1  0  0  0
 36 37  1  0  0  0
 37 38  1  0  0  0
 38 39  1  0  0  0
  6 11  1  0  0  0
 11 12  2  0  0  0
 12 13  1  0  0  0
 13 14  2  0  0  0
 14 15  1  0  0  0
 14 16  1  0  0  0
 10  1  1  0  0  0
 39 35  1  0  0  0
 16 11  1  0  0  0
  8  3  1  0  0  0
 26 22  1  0  0  0
 30 23  1  0  0  0
 19 20  1  0  0  0
M  END
> <minimizedAffinity>
-6.85954

> <CNNscore>
0.3834590912

> <CNNaffinity>
6.5833206177

> <CNN_VS>
2.5244340897

> <CNNaffinity_variance>
0.0784672350

$$$$
[H]c1c(-c2nc3c([H])c(OC([H])([H])C([H])([H])C([H])([H])N4C([H])([H])C([H])([H])C([H])([H])C4([H])[H])c(OC([H])([H])[H])c([H])c3c(N([H])C([H])([H])C3([H])C4([H])C([H])([H])N(C([H])([H])[H])C([H])([H])C3([H])C([H])([H])C4([H])[H])c2[H])oc(C([H])([H])[H])c1[H]


 39 44  0  0  0  0  0  0  0  0999 V2000
   36.5365  -15.4139   36.5719 C   0  0  0  0  0  0  0  0  0  0  0  0
   37.3232  -16.5459   36.6130 C   0  0  0  0  0  0  0  0  0  0  0  0
   36.7794  -17.8068   36.6406 C   0  0  0  0  0  0  0  0  0  0  0  0
   37.6066  -18.9161   36.6910 C   0  0  0  0  0  0  0  0  0  0  0  0
   36.9268  -20.1331   36.7235 C   0  0  0  0  0  0  0  0  0  0  0  0
   35.5701  -20.2719   36.7084 C   0  0  0  0  0  0  0  0  0  0  0  0
   34.8137  -19.1421   36.6591 N   0  0  0  0  0  0  0  0  0  0  0  0
   35.3968  -17.9349   36.6266 C   0  0  0  0  0  0  0  0  0  0  0  0
   34.5783  -16.8126   36.5848 C   0  0  0  0  0  0  0  0  0  0  0  0
   35.1392  -15.5667   36.5585 C   0  0  0  0  0  0  0  0  0  0  0  0
   34.8848  -21.5533   36.7404 C   0  0  0  0  0  0  0  0  0  0  0  0
   33.5631  -21.8187   36.4618 C   0  0  0  0  0  0  0  0  0  0  0  0
   33.3906  -23.1675   36.6284 C   0  0  0  0  0  0  0  0  0  0  0  0
   34.6100  -23.6676   37.0004 C   0  0  0  0  0  0  0  0  0  0  0  0
   34.9507  -25.0891   37.3023 C   0  0  0  0  0  0  0  0  0  0  0  0
   35.4678  -22.6866   37.0565 O   0  0  0  0  0  0  0  0  0  0  0  0
   37.8602  -13.6033   37.5742 C   0  0  0  0  0  0  0  0  0  0  0  0
   37.1001  -14.1490   36.5423 O   0  0  0  0  0  0  0  0  0  0  0  0
   39.0072  -18.8370   36.6522 N   0  0  0  0  0  0  0  0  0  0  0  0
   39.5005  -18.5611   37.5545 H   0  0  0  0  0  0  0  0  0  0  0  0
   39.8954  -19.0645   35.5362 C   0  0  0  0  0  0  0  0  0  0  0  0
   40.9758  -19.9878   35.9218 C   0  0  0  0  0  0  0  0  0  0  0  0
   41.6345  -19.7503   37.2564 C   0  0  0  0  0  0  0  0  0  0  0  0
   42.6586  -20.8617   37.2972 C   0  0  0  0  0  0  0  0  0  0  0  0
   42.9647  -21.1741   35.8708 C   0  0  0  0  0  0  0  0  0  0  0  0
   42.1907  -20.0856   35.0588 C   0  0  0  0  0  0  0  0  0  0  0  0
   43.0551  -18.8879   35.1198 C   0  0  0  0  0  0  0  0  0  0  0  0
   42.8898  -17.9737   36.1557 N   0  0  0  0  0  0  0  0  0  0  0  0
   43.2077  -16.6232   36.0012 C   0  0  0  0  0  0  0  0  0  0  0  0
   42.3496  -18.4431   37.3780 C   0  0  0  0  0  0  0  0  0  0  0  0
   34.4220  -14.4065   36.5218 O   0  0  0  0  0  0  0  0  0  0  0  0
   33.7708  -13.6749   37.4574 C   0  0  0  0  0  0  0  0  0  0  0  0
   33.9434  -12.2324   37.5790 C   0  0  0  0  0  0  0  0  0  0  0  0
   34.5812  -11.4871   36.4851 C   0  0  0  0  0  0  0  0  0  0  0  0
   34.8647  -10.1406   36.6093 N   0  0  0  0  0  0  0  0  0  0  0  0
   35.5899   -9.3984   35.6741 C   0  0  0  0  0  0  0  0  0  0  0  0
   34.7156   -8.2006   35.2803 C   0  0  0  0  0  0  0  0  0  0  0  0
   33.7458   -8.0519   36.4158 C   0  0  0  0  0  0  0  0  0  0  0  0
   33.7288   -9.3934   37.0702 C   0  0  0  0  0  0  0  0  0  0  0  0
 17 18  1  0  0  0
 18  1  1  0  0  0
  1  2  2  0  0  0
  2  3  1  0  0  0
  3  4  2  0  0  0
  4 19  1  0  0  0
 19 21  1  0  0  0
 21 22  1  0  0  0
 22 23  1  0  0  0
 23 24  1  0  0  0
 24 25  1  0  0  0
 25 26  1  0  0  0
 26 27  1  0  0  0
 27 28  1  0  0  0
 28 29  1  0  0  0
 28 30  1  0  0  0
  4  5  1  0  0  0
  5  6  2  0  0  0
  6  7  1  0  0  0
  7  8  2  0  0  0
  8  9  1  0  0  0
  9 10  2  0  0  0
 10 31  1  0  0  0
 31 32  1  0  0  0
 32 33  1  0  0  0
 33 34  1  0  0  0
 34 35  1  0  0  0
 35 36  1  0  0  0
 36 37  1  0  0  0
 37 38  1  0  0  0
 38 39  1  0  0  0
  6 11  1  0  0  0
 11 12  2  0  0  0
 12 13  1  0  0  0
 13 14  2  0  0  0
 14 15  1  0  0  0
 14 16  1  0  0  0
 10  1  1  0  0  0
 39 35  1  0  0  0
 16 11  1  0  0  0
  8  3  1  0  0  0
 26 22  1  0  0  0
 30 23  1  0  0  0
 19 20  1  0  0  0
M  END
> <minimizedAffinity>
-6.08477

> <CNNscore>
0.3066408336

> <CNNaffinity>
6.5792818069

> <CNN_VS>
2.0174765587

> <CNNaffinity_variance>
0.0643694624

$$$$
[H]c1c(-c2nc3c([H])c(OC([H])([H])C([H])([H])C([H])([H])N4C([H])([H])C([H])([H])C([H])([H])C4([H])[H])c(OC([H])([H])[H])c([H])c3c(N([H])C([H])([H])C3([H])C4([H])C([H])([H])N(C([H])([H])[H])C([H])([H])C3([H])C([H])([H])C4([H])[H])c2[H])oc(C([H])([H])[H])c1[H]


 39 44  0  0  0  0  0  0  0  0999 V2000
   32.5622  -20.7408   34.8651 C   0  0  0  0  0  0  0  0  0  0  0  0
   33.9042  -20.5568   35.1243 C   0  0  0  0  0  0  0  0  0  0  0  0
   34.4182  -19.3254   35.4495 C   0  0  0  0  0  0  0  0  0  0  0  0
   35.7740  -19.1839   35.6930 C   0  0  0  0  0  0  0  0  0  0  0  0
   36.1645  -17.8818   36.0032 C   0  0  0  0  0  0  0  0  0  0  0  0
   35.3251  -16.8091   36.0738 C   0  0  0  0  0  0  0  0  0  0  0  0
   34.0040  -17.0153   35.8226 N   0  0  0  0  0  0  0  0  0  0  0  0
   33.5537  -18.2407   35.5163 C   0  0  0  0  0  0  0  0  0  0  0  0
   32.1965  -18.3954   35.2609 C   0  0  0  0  0  0  0  0  0  0  0  0
   31.7050  -19.6291   34.9383 C   0  0  0  0  0  0  0  0  0  0  0  0
   35.7570  -15.4607   36.4022 C   0  0  0  0  0  0  0  0  0  0  0  0
   35.0554  -14.2845   36.2621 C   0  0  0  0  0  0  0  0  0  0  0  0
   35.8780  -13.2824   36.7043 C   0  0  0  0  0  0  0  0  0  0  0  0
   37.0435  -13.8863   37.0947 C   0  0  0  0  0  0  0  0  0  0  0  0
   38.2609  -13.2272   37.6529 C   0  0  0  0  0  0  0  0  0  0  0  0
   36.9363  -15.1719   36.9020 O   0  0  0  0  0  0  0  0  0  0  0  0
   32.0742  -23.0893   35.3955 C   0  0  0  0  0  0  0  0  0  0  0  0
   32.0586  -21.9896   34.5406 O   0  0  0  0  0  0  0  0  0  0  0  0
   36.6751  -20.2596   35.6901 N   0  0  0  0  0  0  0  0  0  0  0  0
   36.9911  -20.6224   34.7403 H   0  0  0  0  0  0  0  0  0  0  0  0
   37.2358  -20.9728   36.8140 C   0  0  0  0  0  0  0  0  0  0  0  0
   36.1968  -21.2348   37.8240 C   0  0  0  0  0  0  0  0  0  0  0  0
   36.5142  -20.8520   39.2467 C   0  0  0  0  0  0  0  0  0  0  0  0
   35.2486  -21.2605   39.9658 C   0  0  0  0  0  0  0  0  0  0  0  0
   34.6597  -22.3576   39.1440 C   0  0  0  0  0  0  0  0  0  0  0  0
   35.7321  -22.6373   38.0417 C   0  0  0  0  0  0  0  0  0  0  0  0
   36.7366  -23.4948   38.7057 C   0  0  0  0  0  0  0  0  0  0  0  0
   37.8191  -22.9084   39.3544 N   0  0  0  0  0  0  0  0  0  0  0  0
   39.0416  -23.5692   39.4872 C   0  0  0  0  0  0  0  0  0  0  0  0
   37.6629  -21.5919   39.8530 C   0  0  0  0  0  0  0  0  0  0  0  0
   30.3919  -19.8813   34.6662 O   0  0  0  0  0  0  0  0  0  0  0  0
   29.2835  -20.0186   35.4325 C   0  0  0  0  0  0  0  0  0  0  0  0
   28.8067  -21.3185   35.8889 C   0  0  0  0  0  0  0  0  0  0  0  0
   28.4167  -21.4912   37.2950 C   0  0  0  0  0  0  0  0  0  0  0  0
   27.4572  -22.4155   37.6610 N   0  0  0  0  0  0  0  0  0  0  0  0
   27.1071  -23.5322   36.8984 C   0  0  0  0  0  0  0  0  0  0  0  0
   27.2637  -24.7593   37.8061 C   0  0  0  0  0  0  0  0  0  0  0  0
   27.1958  -24.2083   39.2003 C   0  0  0  0  0  0  0  0  0  0  0  0
   27.5528  -22.7668   39.0497 C   0  0  0  0  0  0  0  0  0  0  0  0
 17 18  1  0  0  0
 18  1  1  0  0  0
  1  2  2  0  0  0
  2  3  1  0  0  0
  3  4  2  0  0  0
  4 19  1  0  0  0
 19 21  1  0  0  0
 21 22  1  0  0  0
 22 23  1  0  0  0
 23 24  1  0  0  0
 24 25  1  0  0  0
 25 26  1  0  0  0
 26 27  1  0  0  0
 27 28  1  0  0  0
 28 29  1  0  0  0
 28 30  1  0  0  0
  4  5  1  0  0  0
  5  6  2  0  0  0
  6  7  1  0  0  0
  7  8  2  0  0  0
  8  9  1  0  0  0
  9 10  2  0  0  0
 10 31  1  0  0  0
 31 32  1  0  0  0
 32 33  1  0  0  0
 33 34  1  0  0  0
 34 35  1  0  0  0
 35 36  1  0  0  0
 36 37  1  0  0  0
 37 38  1  0  0  0
 38 39  1  0  0  0
  6 11  1  0  0  0
 11 12  2  0  0  0
 12 13  1  0  0  0
 13 14  2  0  0  0
 14 15  1  0  0  0
 14 16  1  0  0  0
 10  1  1  0  0  0
 39 35  1  0  0  0
 16 11  1  0  0  0
  8  3  1  0  0  0
 26 22  1  0  0  0
 30 23  1  0  0  0
 19 20  1  0  0  0
M  END
> <minimizedAffinity>
-6.17088

> <CNNscore>
0.3039506078

> <CNNaffinity>
5.8654527664

> <CNN_VS>
1.7828079462

> <CNNaffinity_variance>
0.3102528453

$$$$
[H]c1c(-c2nc3c([H])c(OC([H])([H])C([H])([H])C([H])([H])N4C([H])([H])C([H])([H])C([H])([H])C4([H])[H])c(OC([H])([H])[H])c([H])c3c(N([H])C([H])([H])C3([H])C4([H])C([H])([H])N(C([H])([H])[H])C([H])([H])C3([H])C([H])([H])C4([H])[H])c2[H])oc(C([H])([H])[H])c1[H]


 39 44  0  0  0  0  0  0  0  0999 V2000
   36.1322  -22.2119   37.0645 C   0  0  0  0  0  0  0  0  0  0  0  0
   37.1858  -21.3362   36.9057 C   0  0  0  0  0  0  0  0  0  0  0  0
   37.0094  -19.9747   36.9415 C   0  0  0  0  0  0  0  0  0  0  0  0
   38.0941  -19.1316   36.7681 C   0  0  0  0  0  0  0  0  0  0  0  0
   37.7754  -17.7751   36.8180 C   0  0  0  0  0  0  0  0  0  0  0  0
   36.5233  -17.2725   37.0178 C   0  0  0  0  0  0  0  0  0  0  0  0
   35.5003  -18.1545   37.1806 N   0  0  0  0  0  0  0  0  0  0  0  0
   35.7295  -19.4753   37.1437 C   0  0  0  0  0  0  0  0  0  0  0  0
   34.6485  -20.3330   37.3076 C   0  0  0  0  0  0  0  0  0  0  0  0
   34.8451  -21.6848   37.2680 C   0  0  0  0  0  0  0  0  0  0  0  0
   36.2171  -15.8525   37.0684 C   0  0  0  0  0  0  0  0  0  0  0  0
   37.0463  -14.8156   37.4322 C   0  0  0  0  0  0  0  0  0  0  0  0
   36.3087  -13.6665   37.3213 C   0  0  0  0  0  0  0  0  0  0  0  0
   35.0643  -14.0485   36.8960 C   0  0  0  0  0  0  0  0  0  0  0  0
   33.8915  -13.1665   36.6228 C   0  0  0  0  0  0  0  0  0  0  0  0
   35.0466  -15.3454   36.7576 O   0  0  0  0  0  0  0  0  0  0  0  0
   36.9078  -24.3214   38.0564 C   0  0  0  0  0  0  0  0  0  0  0  0
   36.3267  -23.5828   37.0281 O   0  0  0  0  0  0  0  0  0  0  0  0
   39.4115  -19.5902   36.6152 N   0  0  0  0  0  0  0  0  0  0  0  0
   39.6850  -20.4637   37.1592 H   0  0  0  0  0  0  0  0  0  0  0  0
   40.4791  -19.0268   35.8221 C   0  0  0  0  0  0  0  0  0  0  0  0
   41.5276  -18.4726   36.6950 C   0  0  0  0  0  0  0  0  0  0  0  0
   42.8181  -18.0589   36.0357 C   0  0  0  0  0  0  0  0  0  0  0  0
   43.6197  -17.5561   37.2148 C   0  0  0  0  0  0  0  0  0  0  0  0
   43.0830  -18.2844   38.4012 C   0  0  0  0  0  0  0  0  0  0  0  0
   42.0725  -19.3151   37.8012 C   0  0  0  0  0  0  0  0  0  0  0  0
   42.9152  -20.4344   37.3296 C   0  0  0  0  0  0  0  0  0  0  0  0
   43.4016  -20.4260   36.0259 N   0  0  0  0  0  0  0  0  0  0  0  0
   43.6806  -21.6084   35.3384 C   0  0  0  0  0  0  0  0  0  0  0  0
   43.5762  -19.1731   35.3887 C   0  0  0  0  0  0  0  0  0  0  0  0
   33.8494  -22.6064   37.4132 O   0  0  0  0  0  0  0  0  0  0  0  0
   32.9452  -23.1534   36.5660 C   0  0  0  0  0  0  0  0  0  0  0  0
   31.9560  -22.3512   35.8564 C   0  0  0  0  0  0  0  0  0  0  0  0
   32.2646  -21.8501   34.5101 C   0  0  0  0  0  0  0  0  0  0  0  0
   32.1167  -20.5130   34.1951 N   0  0  0  0  0  0  0  0  0  0  0  0
   31.3420  -19.6114   34.9290 C   0  0  0  0  0  0  0  0  0  0  0  0
   32.2572  -18.4378   35.3024 C   0  0  0  0  0  0  0  0  0  0  0  0
   33.3762  -18.4996   34.3044 C   0  0  0  0  0  0  0  0  0  0  0  0
   33.3631  -19.9100   33.8158 C   0  0  0  0  0  0  0  0  0  0  0  0
 17 18  1  0  0  0
 18  1  1  0  0  0
  1  2  2  0  0  0
  2  3  1  0  0  0
  3  4  2  0  0  0
  4 19  1  0  0  0
 19 21  1  0  0  0
 21 22  1  0  0  0
 22 23  1  0  0  0
 23 24  1  0  0  0
 24 25  1  0  0  0
 25 26  1  0  0  0
 26 27  1  0  0  0
 27 28  1  0  0  0
 28 29  1  0  0  0
 28 30  1  0  0  0
  4  5  1  0  0  0
  5  6  2  0  0  0
  6  7  1  0  0  0
  7  8  2  0  0  0
  8  9  1  0  0  0
  9 10  2  0  0  0
 10 31  1  0  0  0
 31 32  1  0  0  0
 32 33  1  0  0  0
 33 34  1  0  0  0
 34 35  1  0  0  0
 35 36  1  0  0  0
 36 37  1  0  0  0
 37 38  1  0  0  0
 38 39  1  0  0  0
  6 11  1  0  0  0
 11 12  2  0  0  0
 12 13  1  0  0  0
 13 14  2  0  0  0
 14 15  1  0  0  0
 14 16  1  0  0  0
 10  1  1  0  0  0
 39 35  1  0  0  0
 16 11  1  0  0  0
  8  3  1  0  0  0
 26 22  1  0  0  0
 30 23  1  0  0  0
 19 20  1  0  0  0
M  END
> <minimizedAffinity>
-6.70220

> <CNNscore>
0.2704309523

> <CNNaffinity>
6.2734756470

> <CNN_VS>
1.6965420246

> <CNNaffinity_variance>
0.4054538310

$$$$
[H]c1c2c(c([H])c(OC([H])([H])[H])c1OC([H])([H])C([H])([H])C([H])([H])N1C([H])([H])C([H])([H])C([H])([H])C1([H])[H])C1(C(N([H])[H])=N2)C([H])([H])C([H])([H])C1([H])[H]


 26 29  0  0  0  0  0  0  0  0999 V2000
   36.7789  -18.5998   36.8835 C   0  0  0  0  0  0  0  0  0  0  0  0
   36.7322  -17.2214   36.9287 C   0  0  0  0  0  0  0  0  0  0  0  0
   35.5952  -16.5063   36.5512 C   0  0  0  0  0  0  0  0  0  0  0  0
   34.4970  -17.2183   36.1240 C   0  0  0  0  0  0  0  0  0  0  0  0
   34.5671  -18.6098   36.0863 C   0  0  0  0  0  0  0  0  0  0  0  0
   35.6809  -19.3211   36.4554 C   0  0  0  0  0  0  0  0  0  0  0  0
   33.4762  -16.2866   35.7973 N   0  0  0  0  0  0  0  0  0  0  0  0
   33.8595  -15.0781   35.9883 C   0  0  0  0  0  0  0  0  0  0  0  0
   33.1042  -13.8715   35.7694 N   0  0  0  0  0  0  0  0  0  0  0  0
   35.2299  -15.0941   36.4801 C   0  0  0  0  0  0  0  0  0  0  0  0
   36.2055  -14.1982   35.7540 C   0  0  0  0  0  0  0  0  0  0  0  0
   35.9719  -13.1576   36.8384 C   0  0  0  0  0  0  0  0  0  0  0  0
   35.4910  -14.2844   37.7326 C   0  0  0  0  0  0  0  0  0  0  0  0
   33.1923  -13.3332   34.8792 H   0  0  0  0  0  0  0  0  0  0  0  0
   32.4468  -13.4927   36.4855 H   0  0  0  0  0  0  0  0  0  0  0  0
   38.9426  -19.7083   36.4180 C   0  0  0  0  0  0  0  0  0  0  0  0
   37.9012  -19.3099   37.2564 O   0  0  0  0  0  0  0  0  0  0  0  0
   35.7088  -20.7286   36.4019 O   0  0  0  0  0  0  0  0  0  0  0  0
   34.8028  -21.3979   37.2253 C   0  0  0  0  0  0  0  0  0  0  0  0
   33.8440  -22.3056   36.5447 C   0  0  0  0  0  0  0  0  0  0  0  0
   32.3989  -21.9617   36.7194 C   0  0  0  0  0  0  0  0  0  0  0  0
   31.9788  -20.8549   35.9022 N   0  0  0  0  0  0  0  0  0  0  0  0
   30.5609  -20.6559   35.8433 C   0  0  0  0  0  0  0  0  0  0  0  0
   30.4251  -19.5961   34.7604 C   0  0  0  0  0  0  0  0  0  0  0  0
   31.6827  -19.7165   33.9277 C   0  0  0  0  0  0  0  0  0  0  0  0
   32.3642  -20.9463   34.5314 C   0  0  0  0  0  0  0  0  0  0  0  0
 16 17  1  0  0  0
 17  1  1  0  0  0
  1  2  2  0  0  0
  2  3  1  0  0  0
  3  4  2  0  0  0
  4  5  1  0  0  0
  5  6  2  0  0  0
  6 18  1  0  0  0
 18 19  1  0  0  0
 19 20  1  0  0  0
 20 21  1  0  0  0
 21 22  1  0  0  0
 22 23  1  0  0  0
 23 24  1  0  0  0
 24 25  1  0  0  0
 25 26  1  0  0  0
  4  7  1  0  0  0
  7  8  2  0  0  0
  8  9  1  0  0  0
  8 10  1  0  0  0
 10 11  1  0  0  0
 11 12  1  0  0  0
 12 13  1  0  0  0
  6  1  1  0  0  0
 26 22  1  0  0  0
 13 10  1  0  0  0
 10  3  1  0  0  0
  9 14  1  0  0  0
  9 15  1  0  0  0
M  END
> <minimizedAffinity>
-5.96057

> <CNNscore>
0.6135185957

> <CNNaffinity>
5.3527183533

> <CNN_VS>
3.2839922905

> <CNNaffinity_variance>
0.2379376590

$$$$
[H]c1c2c(c([H])c(OC([H])([H])[H])c1OC([H])([H])C([H])([H])C([H])([H])N1C([H])([H])C([H])([H])C([H])([H])C1([H])[H])C1(C(N([H])[H])=N2)C([H])([H])C([H])([H])C1([H])[H]


 26 29  0  0  0  0  0  0  0  0999 V2000
   36.6157  -15.0487   37.3093 C   0  0  0  0  0  0  0  0  0  0  0  0
   37.0235  -16.1766   36.6268 C   0  0  0  0  0  0  0  0  0  0  0  0
   36.1372  -16.9473   35.8738 C   0  0  0  0  0  0  0  0  0  0  0  0
   34.8195  -16.5515   35.8235 C   0  0  0  0  0  0  0  0  0  0  0  0
   34.4303  -15.4092   36.5208 C   0  0  0  0  0  0  0  0  0  0  0  0
   35.2949  -14.6456   37.2639 C   0  0  0  0  0  0  0  0  0  0  0  0
   34.1187  -17.4792   35.0081 N   0  0  0  0  0  0  0  0  0  0  0  0
   34.8940  -18.3982   34.5629 C   0  0  0  0  0  0  0  0  0  0  0  0
   34.5456  -19.5052   33.7101 N   0  0  0  0  0  0  0  0  0  0  0  0
   36.2402  -18.1575   35.0628 C   0  0  0  0  0  0  0  0  0  0  0  0
   36.9237  -19.3333   35.7200 C   0  0  0  0  0  0  0  0  0  0  0  0
   37.6119  -19.6053   34.3912 C   0  0  0  0  0  0  0  0  0  0  0  0
   37.3406  -18.1592   34.0228 C   0  0  0  0  0  0  0  0  0  0  0  0
   34.3240  -20.4447   34.1079 H   0  0  0  0  0  0  0  0  0  0  0  0
   34.5023  -19.4116   32.6718 H   0  0  0  0  0  0  0  0  0  0  0  0
   38.3154  -13.2686   37.5725 C   0  0  0  0  0  0  0  0  0  0  0  0
   37.4895  -14.2843   38.0544 O   0  0  0  0  0  0  0  0  0  0  0  0
   34.8589  -13.4972   37.9538 O   0  0  0  0  0  0  0  0  0  0  0  0
   34.3683  -12.4525   37.1697 C   0  0  0  0  0  0  0  0  0  0  0  0
   33.1441  -11.7758   37.6694 C   0  0  0  0  0  0  0  0  0  0  0  0
   32.1610  -12.6600   38.3685 C   0  0  0  0  0  0  0  0  0  0  0  0
   30.7930  -12.3321   38.0680 N   0  0  0  0  0  0  0  0  0  0  0  0
   30.5871  -10.9988   37.5848 C   0  0  0  0  0  0  0  0  0  0  0  0
   29.0701  -10.8857   37.5764 C   0  0  0  0  0  0  0  0  0  0  0  0
   28.5899  -11.9167   38.5743 C   0  0  0  0  0  0  0  0  0  0  0  0
   29.8993  -12.4314   39.1759 C   0  0  0  0  0  0  0  0  0  0  0  0
 16 17  1  0  0  0
 17  1  1  0  0  0
  1  2  2  0  0  0
  2  3  1  0  0  0
  3  4  2  0  0  0
  4  5  1  0  0  0
  5  6  2  0  0  0
  6 18  1  0  0  0
 18 19  1  0  0  0
 19 20  1  0  0  0
 20 21  1  0  0  0
 21 22  1  0  0  0
 22 23  1  0  0  0
 23 24  1  0  0  0
 24 25  1  0  0  0
 25 26  1  0  0  0
  4  7  1  0  0  0
  7  8  2  0  0  0
  8  9  1  0  0  0
  8 10  1  0  0  0
 10 11  1  0  0  0
 11 12  1  0  0  0
 12 13  1  0  0  0
  6  1  1  0  0  0
 26 22  1  0  0  0
 13 10  1  0  0  0
 10  3  1  0  0  0
  9 14  1  0  0  0
  9 15  1  0  0  0
M  END
> <minimizedAffinity>
-7.81472

> <CNNscore>
0.5901402831

> <CNNaffinity>
5.9117841721

> <CNN_VS>
3.4887819290

> <CNNaffinity_variance>
0.1905126423

$$$$
[H]c1c2c(c([H])c(OC([H])([H])[H])c1OC([H])([H])C([H])([H])C([H])([H])N1C([H])([H])C([H])([H])C([H])([H])C1([H])[H])C1(C(N([H])[H])=N2)C([H])([H])C([H])([H])C1([H])[H]


 26 29  0  0  0  0  0  0  0  0999 V2000
   36.0081  -18.2516   34.6996 C   0  0  0  0  0  0  0  0  0  0  0  0
   36.4848  -17.1805   35.4274 C   0  0  0  0  0  0  0  0  0  0  0  0
   35.6369  -16.2006   35.9446 C   0  0  0  0  0  0  0  0  0  0  0  0
   34.2861  -16.3264   35.7099 C   0  0  0  0  0  0  0  0  0  0  0  0
   33.8274  -17.4162   34.9721 C   0  0  0  0  0  0  0  0  0  0  0  0
   34.6538  -18.3842   34.4596 C   0  0  0  0  0  0  0  0  0  0  0  0
   33.6345  -15.2249   36.3254 N   0  0  0  0  0  0  0  0  0  0  0  0
   34.4697  -14.4467   36.9091 C   0  0  0  0  0  0  0  0  0  0  0  0
   34.1836  -13.2361   37.6350 N   0  0  0  0  0  0  0  0  0  0  0  0
   35.8121  -14.9805   36.7278 C   0  0  0  0  0  0  0  0  0  0  0  0
   36.8475  -14.0099   36.2103 C   0  0  0  0  0  0  0  0  0  0  0  0
   37.2777  -13.7859   37.6518 C   0  0  0  0  0  0  0  0  0  0  0  0
   36.6418  -15.1216   37.9865 C   0  0  0  0  0  0  0  0  0  0  0  0
   34.2505  -12.3015   37.1745 H   0  0  0  0  0  0  0  0  0  0  0  0
   33.9018  -13.2468   38.6395 H   0  0  0  0  0  0  0  0  0  0  0  0
   38.2016  -19.0769   33.9028 C   0  0  0  0  0  0  0  0  0  0  0  0
   36.8436  -19.2223   34.1871 O   0  0  0  0  0  0  0  0  0  0  0  0
   34.1476  -19.4703   33.7187 O   0  0  0  0  0  0  0  0  0  0  0  0
   32.7787  -19.7146   33.8343 C   0  0  0  0  0  0  0  0  0  0  0  0
   32.3860  -20.8492   34.7088 C   0  0  0  0  0  0  0  0  0  0  0  0
   32.1152  -20.4961   36.1368 C   0  0  0  0  0  0  0  0  0  0  0  0
   30.8095  -20.9041   36.5817 N   0  0  0  0  0  0  0  0  0  0  0  0
   30.6839  -22.3014   36.8740 C   0  0  0  0  0  0  0  0  0  0  0  0
   29.1860  -22.4559   37.0898 C   0  0  0  0  0  0  0  0  0  0  0  0
   28.5567  -21.2961   36.3494 C   0  0  0  0  0  0  0  0  0  0  0  0
   29.7583  -20.6585   35.6486 C   0  0  0  0  0  0  0  0  0  0  0  0
 16 17  1  0  0  0
 17  1  1  0  0  0
  1  2  2  0  0  0
  2  3  1  0  0  0
  3  4  2  0  0  0
  4  5  1  0  0  0
  5  6  2  0  0  0
  6 18  1  0  0  0
 18 19  1  0  0  0
 19 20  1  0  0  0
 20 21  1  0  0  0
 21 22  1  0  0  0
 22 23  1  0  0  0
 23 24  1  0  0  0
 24 25  1  0  0  0
 25 26  1  0  0  0
  4  7  1  0  0  0
  7  8  2  0  0  0
  8  9  1  0  0  0
  8 10  1  0  0  0
 10 11  1  0  0  0
 11 12  1  0  0  0
 12 13  1  0  0  0
  6  1  1  0  0  0
 26 22  1  0  0  0
 13 10  1  0  0  0
 10  3  1  0  0  0
  9 14  1  0  0  0
  9 15  1  0  0  0
M  END
> <minimizedAffinity>
-6.87814

> <CNNscore>
0.4310203791

> <CNNaffinity>
5.1296291351

> <CNN_VS>
2.2109746933

> <CNNaffinity_variance>
0.3841203153

$$$$
[H]c1c2c(c([H])c(OC([H])([H])[H])c1OC([H])([H])C([H])([H])C([H])([H])N1C([H])([H])C([H])([H])C([H])([H])C1([H])[H])C1(C(N([H])[H])=N2)C([H])([H])C([H])([H])C1([H])[H]


 26 29  0  0  0  0  0  0  0  0999 V2000
   37.2465  -18.5182   36.7825 C   0  0  0  0  0  0  0  0  0  0  0  0
   37.0704  -17.1515   36.8549 C   0  0  0  0  0  0  0  0  0  0  0  0
   35.8632  -16.5414   36.5130 C   0  0  0  0  0  0  0  0  0  0  0  0
   34.8286  -17.3471   36.0938 C   0  0  0  0  0  0  0  0  0  0  0  0
   35.0293  -18.7248   36.0283 C   0  0  0  0  0  0  0  0  0  0  0  0
   36.2129  -19.3333   36.3621 C   0  0  0  0  0  0  0  0  0  0  0  0
   33.7175  -16.5112   35.8046 N   0  0  0  0  0  0  0  0  0  0  0  0
   33.9886  -15.2752   36.0111 C   0  0  0  0  0  0  0  0  0  0  0  0
   33.1180  -14.1423   35.8298 N   0  0  0  0  0  0  0  0  0  0  0  0
   35.3644  -15.1693   36.4759 C   0  0  0  0  0  0  0  0  0  0  0  0
   36.2352  -14.1724   35.7482 C   0  0  0  0  0  0  0  0  0  0  0  0
   35.9271  -13.1774   36.8566 C   0  0  0  0  0  0  0  0  0  0  0  0
   35.5740  -14.3600   37.7383 C   0  0  0  0  0  0  0  0  0  0  0  0
   33.1360  -13.5829   34.9485 H   0  0  0  0  0  0  0  0  0  0  0  0
   32.4429  -13.8400   36.5656 H   0  0  0  0  0  0  0  0  0  0  0  0
   39.6661  -18.9452   36.4820 C   0  0  0  0  0  0  0  0  0  0  0  0
   38.4386  -19.1248   37.1201 O   0  0  0  0  0  0  0  0  0  0  0  0
   36.3729  -20.7306   36.2814 O   0  0  0  0  0  0  0  0  0  0  0  0
   35.6532  -21.4908   37.2038 C   0  0  0  0  0  0  0  0  0  0  0  0
   35.9161  -21.2048   38.6375 C   0  0  0  0  0  0  0  0  0  0  0  0
   36.1294  -22.4055   39.5036 C   0  0  0  0  0  0  0  0  0  0  0  0
   37.3877  -22.3831   40.2004 N   0  0  0  0  0  0  0  0  0  0  0  0
   37.2866  -22.1893   41.6167 C   0  0  0  0  0  0  0  0  0  0  0  0
   38.7389  -21.9894   42.0229 C   0  0  0  0  0  0  0  0  0  0  0  0
   39.4409  -21.5199   40.7675 C   0  0  0  0  0  0  0  0  0  0  0  0
   38.2824  -21.3535   39.7818 C   0  0  0  0  0  0  0  0  0  0  0  0
 16 17  1  0  0  0
 17  1  1  0  0  0
  1  2  2  0  0  0
  2  3  1  0  0  0
  3  4  2  0  0  0
  4  5  1  0  0  0
  5  6  2  0  0  0
  6 18  1  0  0  0
 18 19  1  0  0  0
 19 20  1  0  0  0
 20 21  1  0  0  0
 21 22  1  0  0  0
 22 23  1  0  0  0
 23 24  1  0  0  0
 24 25  1  0  0  0
 25 26  1  0  0  0
  4  7  1  0  0  0
  7  8  2  0  0  0
  8  9  1  0  0  0
  8 10  1  0  0  0
 10 11  1  0  0  0
 11 12  1  0  0  0
 12 13  1  0  0  0
  6  1  1  0  0  0
 26 22  1  0  0  0
 13 10  1  0  0  0
 10  3  1  0  0  0
  9 14  1  0  0  0
  9 15  1  0  0  0
M  END
> <minimizedAffinity>
-5.22272

> <CNNscore>
0.3973570168

> <CNNaffinity>
4.7474827766

> <CNN_VS>
1.8864456415

> <CNNaffinity_variance>
0.3645074069

$$$$
[H]c1c2c(c([H])c(OC([H])([H])[H])c1OC([H])([H])C([H])([H])C([H])([H])N1C([H])([H])C([H])([H])C([H])([H])C1([H])[H])C1(C(N([H])[H])=N2)C([H])([H])C([H])([H])C1([H])[H]


 26 29  0  0  0  0  0  0  0  0999 V2000
   34.2755  -17.9297   35.7892 C   0  0  0  0  0  0  0  0  0  0  0  0
   33.7533  -16.7012   36.1390 C   0  0  0  0  0  0  0  0  0  0  0  0
   34.5270  -15.5401   36.1367 C   0  0  0  0  0  0  0  0  0  0  0  0
   35.8497  -15.6464   35.7701 C   0  0  0  0  0  0  0  0  0  0  0  0
   36.3554  -16.8974   35.4209 C   0  0  0  0  0  0  0  0  0  0  0  0
   35.6022  -18.0443   35.4206 C   0  0  0  0  0  0  0  0  0  0  0  0
   36.4258  -14.3504   35.8438 N   0  0  0  0  0  0  0  0  0  0  0  0
   35.5707  -13.4731   36.2219 C   0  0  0  0  0  0  0  0  0  0  0  0
   35.7848  -12.0615   36.4111 N   0  0  0  0  0  0  0  0  0  0  0  0
   34.2917  -14.1322   36.4453 C   0  0  0  0  0  0  0  0  0  0  0  0
   33.6239  -13.8521   37.7709 C   0  0  0  0  0  0  0  0  0  0  0  0
   32.7981  -12.7863   37.0671 C   0  0  0  0  0  0  0  0  0  0  0  0
   33.0962  -13.5013   35.7631 C   0  0  0  0  0  0  0  0  0  0  0  0
   36.0022  -11.6698   37.3541 H   0  0  0  0  0  0  0  0  0  0  0  0
   35.7308  -11.3829   35.6205 H   0  0  0  0  0  0  0  0  0  0  0  0
   32.1696  -19.1799   35.4287 C   0  0  0  0  0  0  0  0  0  0  0  0
   33.5134  -19.0796   35.7900 O   0  0  0  0  0  0  0  0  0  0  0  0
   36.1539  -19.2894   35.0602 O   0  0  0  0  0  0  0  0  0  0  0  0
   37.0466  -19.2843   33.9879 C   0  0  0  0  0  0  0  0  0  0  0  0
   38.3107  -20.0397   34.1825 C   0  0  0  0  0  0  0  0  0  0  0  0
   39.4538  -19.6133   33.3173 C   0  0  0  0  0  0  0  0  0  0  0  0
   40.4411  -18.8427   34.0250 N   0  0  0  0  0  0  0  0  0  0  0  0
   41.7567  -18.8868   33.4585 C   0  0  0  0  0  0  0  0  0  0  0  0
   42.5924  -18.1881   34.5205 C   0  0  0  0  0  0  0  0  0  0  0  0
   41.8038  -18.3317   35.8038 C   0  0  0  0  0  0  0  0  0  0  0  0
   40.6441  -19.2361   35.3814 C   0  0  0  0  0  0  0  0  0  0  0  0
 16 17  1  0  0  0
 17  1  1  0  0  0
  1  2  2  0  0  0
  2  3  1  0  0  0
  3  4  2  0  0  0
  4  5  1  0  0  0
  5  6  2  0  0  0
  6 18  1  0  0  0
 18 19  1  0  0  0
 19 20  1  0  0  0
 20 21  1  0  0  0
 21 22  1  0  0  0
 22 23  1  0  0  0
 23 24  1  0  0  0
 24 25  1  0  0  0
 25 26  1  0  0  0
  4  7  1  0  0  0
  7  8  2  0  0  0
  8  9  1  0  0  0
  8 10  1  0  0  0
 10 11  1  0  0  0
 11 12  1  0  0  0
 12 13  1  0  0  0
  6  1  1  0  0  0
 26 22  1  0  0  0
 13 10  1  0  0  0
 10  3  1  0  0  0
  9 14  1  0  0  0
  9 15  1  0  0  0
M  END
> <minimizedAffinity>
-6.05289

> <CNNscore>
0.3973454833

> <CNNaffinity>
5.1264486313

> <CNN_VS>
2.0369710922

> <CNNaffinity_variance>
0.3322112262

$$$$
[H]c1c2c(c([H])c(OC([H])([H])[H])c1OC([H])([H])C([H])([H])C([H])([H])N1C([H])([H])C([H])([H])C([H])([H])C1([H])[H])C1(C(N([H])[H])=N2)C([H])([H])C([H])([H])C1([H])[H]


 26 29  0  0  0  0  0  0  0  0999 V2000
   37.1059  -20.7097   36.8608 C   0  0  0  0  0  0  0  0  0  0  0  0
   35.8120  -20.6739   36.3826 C   0  0  0  0  0  0  0  0  0  0  0  0
   35.2350  -19.5010   35.8948 C   0  0  0  0  0  0  0  0  0  0  0  0
   35.9987  -18.3555   35.8995 C   0  0  0  0  0  0  0  0  0  0  0  0
   37.3029  -18.4152   36.3873 C   0  0  0  0  0  0  0  0  0  0  0  0
   37.8782  -19.5640   36.8692 C   0  0  0  0  0  0  0  0  0  0  0  0
   35.2078  -17.3047   35.3638 N   0  0  0  0  0  0  0  0  0  0  0  0
   34.0370  -17.7126   35.0372 C   0  0  0  0  0  0  0  0  0  0  0  0
   32.9646  -16.9396   34.4656 N   0  0  0  0  0  0  0  0  0  0  0  0
   33.9355  -19.1334   35.3390 C   0  0  0  0  0  0  0  0  0  0  0  0
   32.7313  -19.5552   36.1474 C   0  0  0  0  0  0  0  0  0  0  0  0
   32.0501  -19.9231   34.8382 C   0  0  0  0  0  0  0  0  0  0  0  0
   33.4298  -20.0124   34.2146 C   0  0  0  0  0  0  0  0  0  0  0  0
   32.2151  -16.5295   35.0655 H   0  0  0  0  0  0  0  0  0  0  0  0
   32.8963  -16.7621   33.4397 H   0  0  0  0  0  0  0  0  0  0  0  0
   37.4232  -22.4635   38.5786 C   0  0  0  0  0  0  0  0  0  0  0  0
   37.6795  -21.8677   37.3435 O   0  0  0  0  0  0  0  0  0  0  0  0
   39.2011  -19.5799   37.3533 O   0  0  0  0  0  0  0  0  0  0  0  0
   40.1785  -19.0633   36.5021 C   0  0  0  0  0  0  0  0  0  0  0  0
   41.5221  -18.8498   37.0983 C   0  0  0  0  0  0  0  0  0  0  0  0
   42.2469  -20.0916   37.5103 C   0  0  0  0  0  0  0  0  0  0  0  0
   42.7588  -20.0278   38.8531 N   0  0  0  0  0  0  0  0  0  0  0  0
   42.2226  -18.9646   39.6504 C   0  0  0  0  0  0  0  0  0  0  0  0
   43.0953  -19.0187   40.8953 C   0  0  0  0  0  0  0  0  0  0  0  0
   44.3741  -19.6964   40.4542 C   0  0  0  0  0  0  0  0  0  0  0  0
   44.1702  -19.8395   38.9445 C   0  0  0  0  0  0  0  0  0  0  0  0
 16 17  1  0  0  0
 17  1  1  0  0  0
  1  2  2  0  0  0
  2  3  1  0  0  0
  3  4  2  0  0  0
  4  5  1  0  0  0
  5  6  2  0  0  0
  6 18  1  0  0  0
 18 19  1  0  0  0
 19 20  1  0  0  0
 20 21  1  0  0  0
 21 22  1  0  0  0
 22 23  1  0  0  0
 23 24  1  0  0  0
 24 25  1  0  0  0
 25 26  1  0  0  0
  4  7  1  0  0  0
  7  8  2  0  0  0
  8  9  1  0  0  0
  8 10  1  0  0  0
 10 11  1  0  0  0
 11 12  1  0  0  0
 12 13  1  0  0  0
  6  1  1  0  0  0
 26 22  1  0  0  0
 13 10  1  0  0  0
 10  3  1  0  0  0
  9 14  1  0  0  0
  9 15  1  0  0  0
M  END
> <minimizedAffinity>
-4.45862

> <CNNscore>
0.3962162435

> <CNNaffinity>
4.5369787216

> <CNN_VS>
1.7976247072

> <CNNaffinity_variance>
0.2110054046

$$$$
[H]c1c2c(c([H])c(OC([H])([H])[H])c1OC([H])([H])C([H])([H])C([H])([H])N1C([H])([H])C([H])([H])C([H])([H])C1([H])[H])C1(C(N([H])[H])=N2)C([H])([H])C([H])([H])C1([H])[H]


 26 29  0  0  0  0  0  0  0  0999 V2000
   35.9608  -18.2974   34.6117 C   0  0  0  0  0  0  0  0  0  0  0  0
   36.4516  -17.2401   35.3502 C   0  0  0  0  0  0  0  0  0  0  0  0
   35.6145  -16.2667   35.8964 C   0  0  0  0  0  0  0  0  0  0  0  0
   34.2599  -16.3848   35.6799 C   0  0  0  0  0  0  0  0  0  0  0  0
   33.7869  -17.4608   34.9309 C   0  0  0  0  0  0  0  0  0  0  0  0
   34.6027  -18.4222   34.3898 C   0  0  0  0  0  0  0  0  0  0  0  0
   33.6209  -15.2919   36.3235 N   0  0  0  0  0  0  0  0  0  0  0  0
   34.4671  -14.5259   36.9076 C   0  0  0  0  0  0  0  0  0  0  0  0
   34.1955  -13.3270   37.6579 N   0  0  0  0  0  0  0  0  0  0  0  0
   35.8050  -15.0604   36.6972 C   0  0  0  0  0  0  0  0  0  0  0  0
   36.8354  -14.0840   36.1806 C   0  0  0  0  0  0  0  0  0  0  0  0
   37.2879  -13.8855   37.6190 C   0  0  0  0  0  0  0  0  0  0  0  0
   36.6530  -15.2249   37.9407 C   0  0  0  0  0  0  0  0  0  0  0  0
   34.2583  -12.3850   37.2122 H   0  0  0  0  0  0  0  0  0  0  0  0
   33.9287  -13.3538   38.6662 H   0  0  0  0  0  0  0  0  0  0  0  0
   38.1092  -19.5138   34.4322 C   0  0  0  0  0  0  0  0  0  0  0  0
   36.7856  -19.2617   34.0705 O   0  0  0  0  0  0  0  0  0  0  0  0
   34.0822  -19.4943   33.6385 O   0  0  0  0  0  0  0  0  0  0  0  0
   32.9294  -20.0999   34.1398 C   0  0  0  0  0  0  0  0  0  0  0  0
   33.1236  -21.0522   35.2630 C   0  0  0  0  0  0  0  0  0  0  0  0
   32.2948  -20.7883   36.4798 C   0  0  0  0  0  0  0  0  0  0  0  0
   33.0798  -20.6313   37.6749 N   0  0  0  0  0  0  0  0  0  0  0  0
   34.4333  -20.2156   37.4542 C   0  0  0  0  0  0  0  0  0  0  0  0
   35.0475  -20.3561   38.8389 C   0  0  0  0  0  0  0  0  0  0  0  0
   34.1744  -21.3597   39.5601 C   0  0  0  0  0  0  0  0  0  0  0  0
   33.2140  -21.8155   38.4595 C   0  0  0  0  0  0  0  0  0  0  0  0
 16 17  1  0  0  0
 17  1  1  0  0  0
  1  2  2  0  0  0
  2  3  1  0  0  0
  3  4  2  0  0  0
  4  5  1  0  0  0
  5  6  2  0  0  0
  6 18  1  0  0  0
 18 19  1  0  0  0
 19 20  1  0  0  0
 20 21  1  0  0  0
 21 22  1  0  0  0
 22 23  1  0  0  0
 23 24  1  0  0  0
 24 25  1  0  0  0
 25 26  1  0  0  0
  4  7  1  0  0  0
  7  8  2  0  0  0
  8  9  1  0  0  0
  8 10  1  0  0  0
 10 11  1  0  0  0
 11 12  1  0  0  0
 12 13  1  0  0  0
  6  1  1  0  0  0
 26 22  1  0  0  0
 13 10  1  0  0  0
 10  3  1  0  0  0
  9 14  1  0  0  0
  9 15  1  0  0  0
M  END
> <minimizedAffinity>
-6.43033

> <CNNscore>
0.3849476576

> <CNNaffinity>
5.1600761414

> <CNN_VS>
1.9863592386

> <CNNaffinity_variance>
0.1757263541

$$$$
[H]c1c2c(c([H])c(OC([H])([H])[H])c1OC([H])([H])C([H])([H])C([H])([H])N1C([H])([H])C([H])([H])C([H])([H])C1([H])[H])C1(C(N([H])[H])=N2)C([H])([H])C([H])([H])C1([H])[H]


 26 29  0  0  0  0  0  0  0  0999 V2000
   37.6808  -20.1602   37.6580 C   0  0  0  0  0  0  0  0  0  0  0  0
   38.9923  -20.1292   37.2301 C   0  0  0  0  0  0  0  0  0  0  0  0
   39.3548  -19.5979   35.9920 C   0  0  0  0  0  0  0  0  0  0  0  0
   38.3568  -19.0937   35.1886 C   0  0  0  0  0  0  0  0  0  0  0  0
   37.0393  -19.1357   35.6414 C   0  0  0  0  0  0  0  0  0  0  0  0
   36.6738  -19.6566   36.8571 C   0  0  0  0  0  0  0  0  0  0  0  0
   38.9605  -18.6152   33.9956 N   0  0  0  0  0  0  0  0  0  0  0  0
   40.2312  -18.7856   34.0067 C   0  0  0  0  0  0  0  0  0  0  0  0
   41.1748  -18.4285   32.9790 N   0  0  0  0  0  0  0  0  0  0  0  0
   40.6070  -19.4213   35.2616 C   0  0  0  0  0  0  0  0  0  0  0  0
   41.4807  -20.6482   35.1478 C   0  0  0  0  0  0  0  0  0  0  0  0
   42.6812  -19.7492   35.4003 C   0  0  0  0  0  0  0  0  0  0  0  0
   41.7270  -18.7527   36.0305 C   0  0  0  0  0  0  0  0  0  0  0  0
   41.4922  -19.1268   32.2708 H   0  0  0  0  0  0  0  0  0  0  0  0
   41.5740  -17.4674   32.9042 H   0  0  0  0  0  0  0  0  0  0  0  0
   37.2365  -22.0383   39.2081 C   0  0  0  0  0  0  0  0  0  0  0  0
   37.3190  -20.6845   38.8816 O   0  0  0  0  0  0  0  0  0  0  0  0
   35.3289  -19.6791   37.2760 O   0  0  0  0  0  0  0  0  0  0  0  0
   34.5100  -20.6380   36.6786 C   0  0  0  0  0  0  0  0  0  0  0  0
   33.6757  -20.1722   35.5414 C   0  0  0  0  0  0  0  0  0  0  0  0
   32.7912  -21.2096   34.9261 C   0  0  0  0  0  0  0  0  0  0  0  0
   31.4028  -20.8336   34.9147 N   0  0  0  0  0  0  0  0  0  0  0  0
   31.1628  -19.4251   34.8050 C   0  0  0  0  0  0  0  0  0  0  0  0
   29.6633  -19.3304   35.0431 C   0  0  0  0  0  0  0  0  0  0  0  0
   29.3051  -20.5791   35.8189 C   0  0  0  0  0  0  0  0  0  0  0  0
   30.6739  -21.2104   36.0821 C   0  0  0  0  0  0  0  0  0  0  0  0
 16 17  1  0  0  0
 17  1  1  0  0  0
  1  2  2  0  0  0
  2  3  1  0  0  0
  3  4  2  0  0  0
  4  5  1  0  0  0
  5  6  2  0  0  0
  6 18  1  0  0  0
 18 19  1  0  0  0
 19 20  1  0  0  0
 20 21  1  0  0  0
 21 22  1  0  0  0
 22 23  1  0  0  0
 23 24  1  0  0  0
 24 25  1  0  0  0
 25 26  1  0  0  0
  4  7  1  0  0  0
  7  8  2  0  0  0
  8  9  1  0  0  0
  8 10  1  0  0  0
 10 11  1  0  0  0
 11 12  1  0  0  0
 12 13  1  0  0  0
  6  1  1  0  0  0
 26 22  1  0  0  0
 13 10  1  0  0  0
 10  3  1  0  0  0
  9 14  1  0  0  0
  9 15  1  0  0  0
M  END
> <minimizedAffinity>
-4.85264

> <CNNscore>
0.3330406547

> <CNNaffinity>
4.6353754997

> <CNN_VS>
1.5437685251

> <CNNaffinity_variance>
0.0709999651

$$$$
[H]c1c2c(c([H])c(OC([H])([H])[H])c1OC([H])([H])C([H])([H])C([H])([H])N1C([H])([H])C([H])([H])C([H])([H])C1([H])[H])C1(C(N([H])[H])=N2)C([H])([H])C([H])([H])C1([H])[H]


 26 29  0  0  0  0  0  0  0  0999 V2000
   35.6162  -20.8841   37.0803 C   0  0  0  0  0  0  0  0  0  0  0  0
   34.3597  -21.3158   36.7075 C   0  0  0  0  0  0  0  0  0  0  0  0
   33.3934  -20.4406   36.2104 C   0  0  0  0  0  0  0  0  0  0  0  0
   33.7257  -19.1095   36.0961 C   0  0  0  0  0  0  0  0  0  0  0  0
   35.0005  -18.6962   36.4788 C   0  0  0  0  0  0  0  0  0  0  0  0
   35.9567  -19.5496   36.9689 C   0  0  0  0  0  0  0  0  0  0  0  0
   32.5966  -18.4238   35.5747 N   0  0  0  0  0  0  0  0  0  0  0  0
   31.6142  -19.2206   35.3649 C   0  0  0  0  0  0  0  0  0  0  0  0
   30.3120  -18.8923   34.8445 N   0  0  0  0  0  0  0  0  0  0  0  0
   32.0153  -20.5679   35.7443 C   0  0  0  0  0  0  0  0  0  0  0  0
   31.0740  -21.3047   36.6678 C   0  0  0  0  0  0  0  0  0  0  0  0
   30.4795  -21.9738   35.4381 C   0  0  0  0  0  0  0  0  0  0  0  0
   31.7688  -21.6457   34.7098 C   0  0  0  0  0  0  0  0  0  0  0  0
   29.5054  -18.7112   35.4821 H   0  0  0  0  0  0  0  0  0  0  0  0
   30.1267  -18.8241   33.8200 H   0  0  0  0  0  0  0  0  0  0  0  0
   36.5868  -22.3314   38.8383 C   0  0  0  0  0  0  0  0  0  0  0  0
   36.5741  -21.7466   37.5718 O   0  0  0  0  0  0  0  0  0  0  0  0
   37.2342  -19.0892   37.3443 O   0  0  0  0  0  0  0  0  0  0  0  0
   38.2169  -19.1132   36.3541 C   0  0  0  0  0  0  0  0  0  0  0  0
   39.6071  -19.3609   36.8148 C   0  0  0  0  0  0  0  0  0  0  0  0
   40.6799  -19.0325   35.8257 C   0  0  0  0  0  0  0  0  0  0  0  0
   41.9682  -18.8346   36.4344 N   0  0  0  0  0  0  0  0  0  0  0  0
   41.9965  -19.0220   37.8548 C   0  0  0  0  0  0  0  0  0  0  0  0
   43.3909  -18.5358   38.2201 C   0  0  0  0  0  0  0  0  0  0  0  0
   43.7932  -17.6048   37.0973 C   0  0  0  0  0  0  0  0  0  0  0  0
   42.5179  -17.5301   36.2550 C   0  0  0  0  0  0  0  0  0  0  0  0
 16 17  1  0  0  0
 17  1  1  0  0  0
  1  2  2  0  0  0
  2  3  1  0  0  0
  3  4  2  0  0  0
  4  5  1  0  0  0
  5  6  2  0  0  0
  6 18  1  0  0  0
 18 19  1  0  0  0
 19 20  1  0  0  0
 20 21  1  0  0  0
 21 22  1  0  0  0
 22 23  1  0  0  0
 23 24  1  0  0  0
 24 25  1  0  0  0
 25 26  1  0  0  0
  4  7  1  0  0  0
  7  8  2  0  0  0
  8  9  1  0  0  0
  8 10  1  0  0  0
 10 11  1  0  0  0
 11 12  1  0  0  0
 12 13  1  0  0  0
  6  1  1  0  0  0
 26 22  1  0  0  0
 13 10  1  0  0  0
 10  3  1  0  0  0
  9 14  1  0  0  0
  9 15  1  0  0  0
M  END
> <minimizedAffinity>
-4.73320

> <CNNscore>
0.3201999366

> <CNNaffinity>
4.3392286301

> <CNN_VS>
1.3894207478

> <CNNaffinity_variance>
0.3933387399

$$$$
[H]c1c(-c2nc3c([H])c(OC([H])([H])C([H])([H])C([H])([H])N4C([H])([H])C([H])([H])C([H])([H])C4([H])[H])c(OC([H])([H])[H])c([H])c3c(N([H])C3([H])C([H])([H])C4(C([H])([H])N(C([H])([H])[H])C([H])([H])C4([H])[H])C3([H])[H])c2[H])oc(C([H])([H])[H])c1[H]


 38 43  0  0  0  0  0  0  0  0999 V2000
   36.1841  -14.0125   36.6829 C   0  0  0  0  0  0  0  0  0  0  0  0
   36.5903  -15.3203   36.6409 C   0  0  0  0  0  0  0  0  0  0  0  0
   35.7032  -16.3226   36.3324 C   0  0  0  0  0  0  0  0  0  0  0  0
   36.0714  -17.6586   36.2787 C   0  0  0  0  0  0  0  0  0  0  0  0
   35.1493  -18.6523   35.9631 C   0  0  0  0  0  0  0  0  0  0  0  0
   33.8584  -18.2597   35.7062 C   0  0  0  0  0  0  0  0  0  0  0  0
   33.4769  -16.9774   35.7512 N   0  0  0  0  0  0  0  0  0  0  0  0
   34.3742  -16.0057   36.0587 C   0  0  0  0  0  0  0  0  0  0  0  0
   34.0004  -14.6910   36.1090 C   0  0  0  0  0  0  0  0  0  0  0  0
   34.8717  -13.6979   36.4129 C   0  0  0  0  0  0  0  0  0  0  0  0
   32.8434  -19.2815   35.3666 C   0  0  0  0  0  0  0  0  0  0  0  0
   33.0200  -20.3905   34.5686 C   0  0  0  0  0  0  0  0  0  0  0  0
   31.8255  -21.0757   34.5135 C   0  0  0  0  0  0  0  0  0  0  0  0
   30.9510  -20.3472   35.2926 C   0  0  0  0  0  0  0  0  0  0  0  0
   29.5092  -20.7108   35.5348 C   0  0  0  0  0  0  0  0  0  0  0  0
   31.5959  -19.3130   35.7648 O   0  0  0  0  0  0  0  0  0  0  0  0
   38.2964  -13.3195   37.5993 C   0  0  0  0  0  0  0  0  0  0  0  0
   37.0677  -12.9673   36.9951 O   0  0  0  0  0  0  0  0  0  0  0  0
   37.4034  -18.0508   36.5452 N   0  0  0  0  0  0  0  0  0  0  0  0
   38.1986  -17.3933   36.6180 H   0  0  0  0  0  0  0  0  0  0  0  0
   37.7468  -19.4532   36.7398 C   0  0  0  0  0  0  0  0  0  0  0  0
   37.8566  -20.2479   35.4593 C   0  0  0  0  0  0  0  0  0  0  0  0
   39.2452  -20.6658   35.8099 C   0  0  0  0  0  0  0  0  0  0  0  0
   39.2258  -19.6990   36.9581 C   0  0  0  0  0  0  0  0  0  0  0  0
   39.4097  -22.1103   36.1620 C   0  0  0  0  0  0  0  0  0  0  0  0
   40.6558  -22.5709   35.4787 C   0  0  0  0  0  0  0  0  0  0  0  0
   41.2773  -21.4316   34.8596 N   0  0  0  0  0  0  0  0  0  0  0  0
   41.8756  -21.7466   33.5845 C   0  0  0  0  0  0  0  0  0  0  0  0
   40.3032  -20.3808   34.7826 C   0  0  0  0  0  0  0  0  0  0  0  0
   34.4903  -12.3748   36.4622 O   0  0  0  0  0  0  0  0  0  0  0  0
   33.7645  -11.8054   37.5301 C   0  0  0  0  0  0  0  0  0  0  0  0
   32.3937  -12.4940   37.5226 C   0  0  0  0  0  0  0  0  0  0  0  0
   31.3661  -11.3854   37.5567 C   0  0  0  0  0  0  0  0  0  0  0  0
   30.0396  -11.9510   37.7150 N   0  0  0  0  0  0  0  0  0  0  0  0
   29.8497  -12.5328   39.0076 C   0  0  0  0  0  0  0  0  0  0  0  0
   28.8810  -11.6479   39.7686 C   0  0  0  0  0  0  0  0  0  0  0  0
   28.0371  -11.0903   38.6397 C   0  0  0  0  0  0  0  0  0  0  0  0
   29.0652  -10.9003   37.5457 C   0  0  0  0  0  0  0  0  0  0  0  0
 17 18  1  0  0  0
 18  1  1  0  0  0
  1  2  2  0  0  0
  2  3  1  0  0  0
  3  4  2  0  0  0
  4 19  1  0  0  0
 19 21  1  0  0  0
 21 22  1  0  0  0
 22 23  1  0  0  0
 23 24  1  0  0  0
 23 25  1  0  0  0
 25 26  1  0  0  0
 26 27  1  0  0  0
 27 28  1  0  0  0
 27 29  1  0  0  0
  4  5  1  0  0  0
  5  6  2  0  0  0
  6  7  1  0  0  0
  7  8  2  0  0  0
  8  9  1  0  0  0
  9 10  2  0  0  0
 10 30  1  0  0  0
 30 31  1  0  0  0
 31 32  1  0  0  0
 32 33  1  0  0  0
 33 34  1  0  0  0
 34 35  1  0  0  0
 35 36  1  0  0  0
 36 37  1  0  0  0
 37 38  1  0  0  0
  6 11  1  0  0  0
 11 12  2  0  0  0
 12 13  1  0  0  0
 13 14  2  0  0  0
 14 15  1  0  0  0
 14 16  1  0  0  0
 10  1  1  0  0  0
 38 34  1  0  0  0
 16 11  1  0  0  0
  8  3  1  0  0  0
 24 21  1  0  0  0
 29 23  1  0  0  0
 19 20  1  0  0  0
M  END
> <minimizedAffinity>
-8.62970

> <CNNscore>
0.6977245808

> <CNNaffinity>
7.3401079178

> <CNN_VS>
5.1213736534

> <CNNaffinity_variance>
0.0525365360

$$$$
[H]c1c(-c2nc3c([H])c(OC([H])([H])C([H])([H])C([H])([H])N4C([H])([H])C([H])([H])C([H])([H])C4([H])[H])c(OC([H])([H])[H])c([H])c3c(N([H])C3([H])C([H])([H])C4(C([H])([H])N(C([H])([H])[H])C([H])([H])C4([H])[H])C3([H])[H])c2[H])oc(C([H])([H])[H])c1[H]


 38 43  0  0  0  0  0  0  0  0999 V2000
   36.1144  -13.9204   36.6328 C   0  0  0  0  0  0  0  0  0  0  0  0
   36.5500  -15.1192   36.1324 C   0  0  0  0  0  0  0  0  0  0  0  0
   35.6617  -16.1287   35.8525 C   0  0  0  0  0  0  0  0  0  0  0  0
   36.0589  -17.3570   35.3453 C   0  0  0  0  0  0  0  0  0  0  0  0
   35.1347  -18.3611   35.0716 C   0  0  0  0  0  0  0  0  0  0  0  0
   33.8119  -18.0898   35.3228 C   0  0  0  0  0  0  0  0  0  0  0  0
   33.4020  -16.9132   35.8119 N   0  0  0  0  0  0  0  0  0  0  0  0
   34.3012  -15.9316   36.0800 C   0  0  0  0  0  0  0  0  0  0  0  0
   33.8986  -14.7239   36.5801 C   0  0  0  0  0  0  0  0  0  0  0  0
   34.7709  -13.7241   36.8581 C   0  0  0  0  0  0  0  0  0  0  0  0
   32.7936  -19.1275   35.0474 C   0  0  0  0  0  0  0  0  0  0  0  0
   32.8971  -20.1729   34.1562 C   0  0  0  0  0  0  0  0  0  0  0  0
   31.7283  -20.9013   34.2096 C   0  0  0  0  0  0  0  0  0  0  0  0
   30.9430  -20.2624   35.1465 C   0  0  0  0  0  0  0  0  0  0  0  0
   29.5589  -20.7000   35.5492 C   0  0  0  0  0  0  0  0  0  0  0  0
   31.6121  -19.2364   35.6025 O   0  0  0  0  0  0  0  0  0  0  0  0
   38.2292  -13.2144   37.5334 C   0  0  0  0  0  0  0  0  0  0  0  0
   36.9985  -12.8709   36.9284 O   0  0  0  0  0  0  0  0  0  0  0  0
   37.4236  -17.6247   35.0908 N   0  0  0  0  0  0  0  0  0  0  0  0
   38.0878  -16.9341   34.7011 H   0  0  0  0  0  0  0  0  0  0  0  0
   37.9951  -18.9350   35.3722 C   0  0  0  0  0  0  0  0  0  0  0  0
   39.4076  -19.1165   34.8670 C   0  0  0  0  0  0  0  0  0  0  0  0
   39.8755  -19.4817   36.2358 C   0  0  0  0  0  0  0  0  0  0  0  0
   38.5355  -19.0800   36.7803 C   0  0  0  0  0  0  0  0  0  0  0  0
   40.2631  -20.9149   36.4189 C   0  0  0  0  0  0  0  0  0  0  0  0
   41.5250  -20.9108   37.2184 C   0  0  0  0  0  0  0  0  0  0  0  0
   41.8071  -19.5556   37.6078 N   0  0  0  0  0  0  0  0  0  0  0  0
   43.2174  -19.2501   37.5839 C   0  0  0  0  0  0  0  0  0  0  0  0
   41.0256  -18.6830   36.7791 C   0  0  0  0  0  0  0  0  0  0  0  0
   34.3605  -12.5090   37.3619 O   0  0  0  0  0  0  0  0  0  0  0  0
   33.2691  -12.3516   38.2424 C   0  0  0  0  0  0  0  0  0  0  0  0
   32.4249  -11.2073   37.6669 C   0  0  0  0  0  0  0  0  0  0  0  0
   31.0888  -11.8134   37.3013 C   0  0  0  0  0  0  0  0  0  0  0  0
   30.0886  -10.7680   37.1955 N   0  0  0  0  0  0  0  0  0  0  0  0
   28.8403  -11.1519   37.7783 C   0  0  0  0  0  0  0  0  0  0  0  0
   28.6562  -10.3344   39.0426 C   0  0  0  0  0  0  0  0  0  0  0  0
   29.3986   -9.0621   38.6854 C   0  0  0  0  0  0  0  0  0  0  0  0
   30.5684   -9.5965   37.8881 C   0  0  0  0  0  0  0  0  0  0  0  0
 17 18  1  0  0  0
 18  1  1  0  0  0
  1  2  2  0  0  0
  2  3  1  0  0  0
  3  4  2  0  0  0
  4 19  1  0  0  0
 19 21  1  0  0  0
 21 22  1  0  0  0
 22 23  1  0  0  0
 23 24  1  0  0  0
 23 25  1  0  0  0
 25 26  1  0  0  0
 26 27  1  0  0  0
 27 28  1  0  0  0
 27 29  1  0  0  0
  4  5  1  0  0  0
  5  6  2  0  0  0
  6  7  1  0  0  0
  7  8  2  0  0  0
  8  9  1  0  0  0
  9 10  2  0  0  0
 10 30  1  0  0  0
 30 31  1  0  0  0
 31 32  1  0  0  0
 32 33  1  0  0  0
 33 34  1  0  0  0
 34 35  1  0  0  0
 35 36  1  0  0  0
 36 37  1  0  0  0
 37 38  1  0  0  0
  6 11  1  0  0  0
 11 12  2  0  0  0
 12 13  1  0  0  0
 13 14  2  0  0  0
 14 15  1  0  0  0
 14 16  1  0  0  0
 10  1  1  0  0  0
 38 34  1  0  0  0
 16 11  1  0  0  0
  8  3  1  0  0  0
 24 21  1  0  0  0
 29 23  1  0  0  0
 19 20  1  0  0  0
M  END
> <minimizedAffinity>
-8.86804

> <CNNscore>
0.6772593856

> <CNNaffinity>
7.2874159813

> <CNN_VS>
4.9354710579

> <CNNaffinity_variance>
0.0609990135

$$$$
[H]c1c(-c2nc3c([H])c(OC([H])([H])C([H])([H])C([H])([H])N4C([H])([H])C([H])([H])C([H])([H])C4([H])[H])c(OC([H])([H])[H])c([H])c3c(N([H])C3([H])C([H])([H])C4(C([H])([H])N(C([H])([H])[H])C([H])([H])C4([H])[H])C3([H])[H])c2[H])oc(C([H])([H])[H])c1[H]


 38 43  0  0  0  0  0  0  0  0999 V2000
   36.1364  -14.0183   36.6427 C   0  0  0  0  0  0  0  0  0  0  0  0
   36.5512  -15.2405   36.1829 C   0  0  0  0  0  0  0  0  0  0  0  0
   35.6423  -16.2304   35.8990 C   0  0  0  0  0  0  0  0  0  0  0  0
   36.0181  -17.4811   35.4320 C   0  0  0  0  0  0  0  0  0  0  0  0
   35.0733  -18.4643   35.1530 C   0  0  0  0  0  0  0  0  0  0  0  0
   33.7522  -18.1494   35.3577 C   0  0  0  0  0  0  0  0  0  0  0  0
   33.3627  -16.9503   35.8074 N   0  0  0  0  0  0  0  0  0  0  0  0
   34.2821  -15.9889   36.0805 C   0  0  0  0  0  0  0  0  0  0  0  0
   33.9005  -14.7588   36.5408 C   0  0  0  0  0  0  0  0  0  0  0  0
   34.7932  -13.7782   36.8225 C   0  0  0  0  0  0  0  0  0  0  0  0
   32.7124  -19.1636   35.0750 C   0  0  0  0  0  0  0  0  0  0  0  0
   32.7984  -20.2111   34.1844 C   0  0  0  0  0  0  0  0  0  0  0  0
   31.6129  -20.9126   34.2294 C   0  0  0  0  0  0  0  0  0  0  0  0
   30.8358  -20.2560   35.1608 C   0  0  0  0  0  0  0  0  0  0  0  0
   29.4392  -20.6619   35.5536 C   0  0  0  0  0  0  0  0  0  0  0  0
   31.5249  -19.2454   35.6217 O   0  0  0  0  0  0  0  0  0  0  0  0
   38.2392  -13.3512   37.5994 C   0  0  0  0  0  0  0  0  0  0  0  0
   37.0418  -12.9879   36.9412 O   0  0  0  0  0  0  0  0  0  0  0  0
   37.3813  -17.7938   35.2252 N   0  0  0  0  0  0  0  0  0  0  0  0
   37.9074  -17.5572   34.3666 H   0  0  0  0  0  0  0  0  0  0  0  0
   38.1528  -18.4922   36.2448 C   0  0  0  0  0  0  0  0  0  0  0  0
   37.3258  -19.0221   37.3931 C   0  0  0  0  0  0  0  0  0  0  0  0
   37.8473  -20.4010   37.1634 C   0  0  0  0  0  0  0  0  0  0  0  0
   38.4839  -19.9273   35.8891 C   0  0  0  0  0  0  0  0  0  0  0  0
   38.7757  -20.9182   38.2161 C   0  0  0  0  0  0  0  0  0  0  0  0
   38.3738  -22.3338   38.4733 C   0  0  0  0  0  0  0  0  0  0  0  0
   37.3469  -22.6886   37.5314 N   0  0  0  0  0  0  0  0  0  0  0  0
   36.3337  -23.5412   38.1052 C   0  0  0  0  0  0  0  0  0  0  0  0
   36.8168  -21.4771   36.9741 C   0  0  0  0  0  0  0  0  0  0  0  0
   34.4039  -12.5404   37.2860 O   0  0  0  0  0  0  0  0  0  0  0  0
   33.3400  -12.3390   38.1910 C   0  0  0  0  0  0  0  0  0  0  0  0
   32.4637  -11.2415   37.5738 C   0  0  0  0  0  0  0  0  0  0  0  0
   31.1117  -11.8721   37.3274 C   0  0  0  0  0  0  0  0  0  0  0  0
   30.1865  -11.4717   38.3705 N   0  0  0  0  0  0  0  0  0  0  0  0
   29.0918  -10.7066   37.8590 C   0  0  0  0  0  0  0  0  0  0  0  0
   27.8479  -11.5693   37.9544 C   0  0  0  0  0  0  0  0  0  0  0  0
   28.1688  -12.4219   39.1658 C   0  0  0  0  0  0  0  0  0  0  0  0
   29.6541  -12.6575   38.9972 C   0  0  0  0  0  0  0  0  0  0  0  0
 17 18  1  0  0  0
 18  1  1  0  0  0
  1  2  2  0  0  0
  2  3  1  0  0  0
  3  4  2  0  0  0
  4 19  1  0  0  0
 19 21  1  0  0  0
 21 22  1  0  0  0
 22 23  1  0  0  0
 23 24  1  0  0  0
 23 25  1  0  0  0
 25 26  1  0  0  0
 26 27  1  0  0  0
 27 28  1  0  0  0
 27 29  1  0  0  0
  4  5  1  0  0  0
  5  6  2  0  0  0
  6  7  1  0  0  0
  7  8  2  0  0  0
  8  9  1  0  0  0
  9 10  2  0  0  0
 10 30  1  0  0  0
 30 31  1  0  0  0
 31 32  1  0  0  0
 32 33  1  0  0  0
 33 34  1  0  0  0
 34 35  1  0  0  0
 35 36  1  0  0  0
 36 37  1  0  0  0
 37 38  1  0  0  0
  6 11  1  0  0  0
 11 12  2  0  0  0
 12 13  1  0  0  0
 13 14  2  0  0  0
 14 15  1  0  0  0
 14 16  1  0  0  0
 10  1  1  0  0  0
 38 34  1  0  0  0
 16 11  1  0  0  0
  8  3  1  0  0  0
 24 21  1  0  0  0
 29 23  1  0  0  0
 19 20  1  0  0  0
M  END
> <minimizedAffinity>
-8.32289

> <CNNscore>
0.6409748197

> <CNNaffinity>
7.2444519997

> <CNN_VS>
4.6435112953

> <CNNaffinity_variance>
0.1475028992

$$$$
[H]c1c(-c2nc3c([H])c(OC([H])([H])C([H])([H])C([H])([H])N4C([H])([H])C([H])([H])C([H])([H])C4([H])[H])c(OC([H])([H])[H])c([H])c3c(N([H])C3([H])C([H])([H])C4(C([H])([H])N(C([H])([H])[H])C([H])([H])C4([H])[H])C3([H])[H])c2[H])oc(C([H])([H])[H])c1[H]


 38 43  0  0  0  0  0  0  0  0999 V2000
   36.1383  -14.5212   36.3951 C   0  0  0  0  0  0  0  0  0  0  0  0
   36.7331  -15.6720   35.9487 C   0  0  0  0  0  0  0  0  0  0  0  0
   35.9905  -16.8050   35.7218 C   0  0  0  0  0  0  0  0  0  0  0  0
   36.5513  -17.9903   35.2702 C   0  0  0  0  0  0  0  0  0  0  0  0
   35.7724  -19.1225   35.0494 C   0  0  0  0  0  0  0  0  0  0  0  0
   34.4249  -19.0220   35.2957 C   0  0  0  0  0  0  0  0  0  0  0  0
   33.8585  -17.8903   35.7317 N   0  0  0  0  0  0  0  0  0  0  0  0
   34.6157  -16.7840   35.9480 C   0  0  0  0  0  0  0  0  0  0  0  0
   34.0524  -15.6200   36.3935 C   0  0  0  0  0  0  0  0  0  0  0  0
   34.7805  -14.4990   36.6191 C   0  0  0  0  0  0  0  0  0  0  0  0
   33.5573  -20.2004   35.0754 C   0  0  0  0  0  0  0  0  0  0  0  0
   32.6817  -20.3998   34.0307 C   0  0  0  0  0  0  0  0  0  0  0  0
   32.0734  -21.6239   34.2067 C   0  0  0  0  0  0  0  0  0  0  0  0
   32.6094  -22.1333   35.3711 C   0  0  0  0  0  0  0  0  0  0  0  0
   32.2449  -23.4651   35.9737 C   0  0  0  0  0  0  0  0  0  0  0  0
   33.4678  -21.2637   35.8351 O   0  0  0  0  0  0  0  0  0  0  0  0
   37.9616  -13.4409   37.5310 C   0  0  0  0  0  0  0  0  0  0  0  0
   36.8713  -13.3485   36.6358 O   0  0  0  0  0  0  0  0  0  0  0  0
   37.9398  -18.0818   35.0202 N   0  0  0  0  0  0  0  0  0  0  0  0
   38.4909  -17.3551   34.5323 H   0  0  0  0  0  0  0  0  0  0  0  0
   38.7033  -19.2458   35.4501 C   0  0  0  0  0  0  0  0  0  0  0  0
   40.0601  -19.3727   34.7972 C   0  0  0  0  0  0  0  0  0  0  0  0
   40.7248  -19.4154   36.1322 C   0  0  0  0  0  0  0  0  0  0  0  0
   39.4156  -19.0585   36.7742 C   0  0  0  0  0  0  0  0  0  0  0  0
   41.3117  -20.7375   36.5134 C   0  0  0  0  0  0  0  0  0  0  0  0
   42.6459  -20.4469   37.1193 C   0  0  0  0  0  0  0  0  0  0  0  0
   42.7944  -19.0201   37.2184 N   0  0  0  0  0  0  0  0  0  0  0  0
   44.1416  -18.5790   36.9478 C   0  0  0  0  0  0  0  0  0  0  0  0
   41.8175  -18.4108   36.3619 C   0  0  0  0  0  0  0  0  0  0  0  0
   34.2084  -13.3286   37.0679 O   0  0  0  0  0  0  0  0  0  0  0  0
   32.9625  -13.2653   37.7275 C   0  0  0  0  0  0  0  0  0  0  0  0
   32.5351  -11.7927   37.6807 C   0  0  0  0  0  0  0  0  0  0  0  0
   33.8003  -10.9946   37.4612 C   0  0  0  0  0  0  0  0  0  0  0  0
   33.5415   -9.5882   37.7058 N   0  0  0  0  0  0  0  0  0  0  0  0
   34.3171   -8.7391   36.8555 C   0  0  0  0  0  0  0  0  0  0  0  0
   33.3673   -8.0976   35.8620 C   0  0  0  0  0  0  0  0  0  0  0  0
   32.0889   -8.0293   36.6734 C   0  0  0  0  0  0  0  0  0  0  0  0
   32.1453   -9.3240   37.4547 C   0  0  0  0  0  0  0  0  0  0  0  0
 17 18  1  0  0  0
 18  1  1  0  0  0
  1  2  2  0  0  0
  2  3  1  0  0  0
  3  4  2  0  0  0
  4 19  1  0  0  0
 19 21  1  0  0  0
 21 22  1  0  0  0
 22 23  1  0  0  0
 23 24  1  0  0  0
 23 25  1  0  0  0
 25 26  1  0  0  0
 26 27  1  0  0  0
 27 28  1  0  0  0
 27 29  1  0  0  0
  4  5  1  0  0  0
  5  6  2  0  0  0
  6  7  1  0  0  0
  7  8  2  0  0  0
  8  9  1  0  0  0
  9 10  2  0  0  0
 10 30  1  0  0  0
 30 31  1  0  0  0
 31 32  1  0  0  0
 32 33  1  0  0  0
 33 34  1  0  0  0
 34 35  1  0  0  0
 35 36  1  0  0  0
 36 37  1  0  0  0
 37 38  1  0  0  0
  6 11  1  0  0  0
 11 12  2  0  0  0
 12 13  1  0  0  0
 13 14  2  0  0  0
 14 15  1  0  0  0
 14 16  1  0  0  0
 10  1  1  0  0  0
 38 34  1  0  0  0
 16 11  1  0  0  0
  8  3  1  0  0  0
 24 21  1  0  0  0
 29 23  1  0  0  0
 19 20  1  0  0  0
M  END
> <minimizedAffinity>
-7.79708

> <CNNscore>
0.5070129037

> <CNNaffinity>
6.9405708313

> <CNN_VS>
3.5189590454

> <CNNaffinity_variance>
0.0315617099

$$$$
[H]c1c(-c2nc3c([H])c(OC([H])([H])C([H])([H])C([H])([H])N4C([H])([H])C([H])([H])C([H])([H])C4([H])[H])c(OC([H])([H])[H])c([H])c3c(N([H])C3([H])C([H])([H])C4(C([H])([H])N(C([H])([H])[H])C([H])([H])C4([H])[H])C3([H])[H])c2[H])oc(C([H])([H])[H])c1[H]


 38 43  0  0  0  0  0  0  0  0999 V2000
   32.4879  -20.4481   34.3529 C   0  0  0  0  0  0  0  0  0  0  0  0
   33.8401  -20.2556   34.4615 C   0  0  0  0  0  0  0  0  0  0  0  0
   34.3465  -19.0568   34.9010 C   0  0  0  0  0  0  0  0  0  0  0  0
   35.7072  -18.8191   35.0259 C   0  0  0  0  0  0  0  0  0  0  0  0
   36.1904  -17.5932   35.4742 C   0  0  0  0  0  0  0  0  0  0  0  0
   35.2678  -16.6257   35.7890 C   0  0  0  0  0  0  0  0  0  0  0  0
   33.9495  -16.8292   35.6775 N   0  0  0  0  0  0  0  0  0  0  0  0
   33.4749  -18.0241   35.2405 C   0  0  0  0  0  0  0  0  0  0  0  0
   32.1310  -18.2479   35.1209 C   0  0  0  0  0  0  0  0  0  0  0  0
   31.6257  -19.4290   34.6878 C   0  0  0  0  0  0  0  0  0  0  0  0
   35.7352  -15.3064   36.2694 C   0  0  0  0  0  0  0  0  0  0  0  0
   35.0052  -14.1394   36.3247 C   0  0  0  0  0  0  0  0  0  0  0  0
   35.8160  -13.1483   36.8343 C   0  0  0  0  0  0  0  0  0  0  0  0
   37.0298  -13.7578   37.0744 C   0  0  0  0  0  0  0  0  0  0  0  0
   38.2422  -13.0645   37.6395 C   0  0  0  0  0  0  0  0  0  0  0  0
   36.9269  -15.0138   36.7277 O   0  0  0  0  0  0  0  0  0  0  0  0
   31.9342  -22.7409   34.8202 C   0  0  0  0  0  0  0  0  0  0  0  0
   31.9415  -21.6618   33.9068 O   0  0  0  0  0  0  0  0  0  0  0  0
   36.6476  -19.8228   34.6987 N   0  0  0  0  0  0  0  0  0  0  0  0
   36.3944  -20.7755   34.3851 H   0  0  0  0  0  0  0  0  0  0  0  0
   38.0789  -19.5658   34.7868 C   0  0  0  0  0  0  0  0  0  0  0  0
   38.8274  -20.5272   35.6805 C   0  0  0  0  0  0  0  0  0  0  0  0
   39.7504  -20.8836   34.5639 C   0  0  0  0  0  0  0  0  0  0  0  0
   38.8745  -20.1131   33.6193 C   0  0  0  0  0  0  0  0  0  0  0  0
   41.1560  -20.3940   34.7138 C   0  0  0  0  0  0  0  0  0  0  0  0
   42.0416  -21.5232   34.2988 C   0  0  0  0  0  0  0  0  0  0  0  0
   41.2120  -22.5865   33.8002 N   0  0  0  0  0  0  0  0  0  0  0  0
   41.7033  -23.8944   34.1622 C   0  0  0  0  0  0  0  0  0  0  0  0
   39.8678  -22.3458   34.2410 C   0  0  0  0  0  0  0  0  0  0  0  0
   30.2708  -19.6498   34.5690 O   0  0  0  0  0  0  0  0  0  0  0  0
   29.3638  -19.5684   35.6470 C   0  0  0  0  0  0  0  0  0  0  0  0
   29.0953  -21.0148   36.0820 C   0  0  0  0  0  0  0  0  0  0  0  0
   28.1151  -20.9334   37.2303 C   0  0  0  0  0  0  0  0  0  0  0  0
   28.6132  -21.7015   38.3556 N   0  0  0  0  0  0  0  0  0  0  0  0
   27.5662  -22.3828   39.0521 C   0  0  0  0  0  0  0  0  0  0  0  0
   27.7230  -23.8657   38.7747 C   0  0  0  0  0  0  0  0  0  0  0  0
   29.2233  -23.9773   38.5901 C   0  0  0  0  0  0  0  0  0  0  0  0
   29.5457  -22.6881   37.8661 C   0  0  0  0  0  0  0  0  0  0  0  0
 17 18  1  0  0  0
 18  1  1  0  0  0
  1  2  2  0  0  0
  2  3  1  0  0  0
  3  4  2  0  0  0
  4 19  1  0  0  0
 19 21  1  0  0  0
 21 22  1  0  0  0
 22 23  1  0  0  0
 23 24  1  0  0  0
 23 25  1  0  0  0
 25 26  1  0  0  0
 26 27  1  0  0  0
 27 28  1  0  0  0
 27 29  1  0  0  0
  4  5  1  0  0  0
  5  6  2  0  0  0
  6  7  1  0  0  0
  7  8  2  0  0  0
  8  9  1  0  0  0
  9 10  2  0  0  0
 10 30  1  0  0  0
 30 31  1  0  0  0
 31 32  1  0  0  0
 32 33  1  0  0  0
 33 34  1  0  0  0
 34 35  1  0  0  0
 35 36  1  0  0  0
 36 37  1  0  0  0
 37 38  1  0  0  0
  6 11  1  0  0  0
 11 12  2  0  0  0
 12 13  1  0  0  0
 13 14  2  0  0  0
 14 15  1  0  0  0
 14 16  1  0  0  0
 10  1  1  0  0  0
 38 34  1  0  0  0
 16 11  1  0  0  0
  8  3  1  0  0  0
 24 21  1  0  0  0
 29 23  1  0  0  0
 19 20  1  0  0  0
M  END
> <minimizedAffinity>
-7.13760

> <CNNscore>
0.4486220777

> <CNNaffinity>
6.2883634567

> <CNN_VS>
2.8210985661

> <CNNaffinity_variance>
0.1580117643

$$$$
[H]c1c(-c2nc3c([H])c(OC([H])([H])C([H])([H])C([H])([H])N4C([H])([H])C([H])([H])C([H])([H])C4([H])[H])c(OC([H])([H])[H])c([H])c3c(N([H])C3([H])C([H])([H])C4(C([H])([H])N(C([H])([H])[H])C([H])([H])C4([H])[H])C3([H])[H])c2[H])oc(C([H])([H])[H])c1[H]


 38 43  0  0  0  0  0  0  0  0999 V2000
   32.7154  -20.6704   35.1235 C   0  0  0  0  0  0  0  0  0  0  0  0
   33.9795  -20.2390   35.4288 C   0  0  0  0  0  0  0  0  0  0  0  0
   34.2306  -18.9095   35.6655 C   0  0  0  0  0  0  0  0  0  0  0  0
   35.4939  -18.4296   35.9775 C   0  0  0  0  0  0  0  0  0  0  0  0
   35.7174  -17.0760   36.2123 C   0  0  0  0  0  0  0  0  0  0  0  0
   34.6380  -16.2314   36.1234 C   0  0  0  0  0  0  0  0  0  0  0  0
   33.4087  -16.6684   35.8241 N   0  0  0  0  0  0  0  0  0  0  0  0
   33.1875  -17.9884   35.5946 C   0  0  0  0  0  0  0  0  0  0  0  0
   31.9375  -18.4510   35.2875 C   0  0  0  0  0  0  0  0  0  0  0  0
   31.6840  -19.7619   35.0530 C   0  0  0  0  0  0  0  0  0  0  0  0
   34.8279  -14.7838   36.3646 C   0  0  0  0  0  0  0  0  0  0  0  0
   35.9464  -14.0354   36.0704 C   0  0  0  0  0  0  0  0  0  0  0  0
   35.7070  -12.7339   36.4557 C   0  0  0  0  0  0  0  0  0  0  0  0
   34.4308  -12.7375   36.9789 C   0  0  0  0  0  0  0  0  0  0  0  0
   33.7270  -11.5270   37.5347 C   0  0  0  0  0  0  0  0  0  0  0  0
   33.9655  -13.9565   36.9010 O   0  0  0  0  0  0  0  0  0  0  0  0
   32.8100  -22.9547   35.8685 C   0  0  0  0  0  0  0  0  0  0  0  0
   32.4288  -22.0223   34.8766 O   0  0  0  0  0  0  0  0  0  0  0  0
   36.5976  -19.3089   36.0661 N   0  0  0  0  0  0  0  0  0  0  0  0
   36.9359  -19.7288   36.9488 H   0  0  0  0  0  0  0  0  0  0  0  0
   37.3501  -19.6887   34.8778 C   0  0  0  0  0  0  0  0  0  0  0  0
   38.1851  -18.5747   34.2905 C   0  0  0  0  0  0  0  0  0  0  0  0
   39.4147  -19.4142   34.3857 C   0  0  0  0  0  0  0  0  0  0  0  0
   38.6389  -20.4271   35.1767 C   0  0  0  0  0  0  0  0  0  0  0  0
   39.9745  -19.8805   33.0792 C   0  0  0  0  0  0  0  0  0  0  0  0
   41.4554  -19.7063   33.1695 C   0  0  0  0  0  0  0  0  0  0  0  0
   41.7786  -19.2840   34.5055 N   0  0  0  0  0  0  0  0  0  0  0  0
   42.8526  -18.3207   34.5419 C   0  0  0  0  0  0  0  0  0  0  0  0
   40.5742  -18.8113   35.1260 C   0  0  0  0  0  0  0  0  0  0  0  0
   30.4229  -20.2231   34.7440 O   0  0  0  0  0  0  0  0  0  0  0  0
   29.3722  -20.3252   35.6804 C   0  0  0  0  0  0  0  0  0  0  0  0
   28.8911  -21.7805   35.6171 C   0  0  0  0  0  0  0  0  0  0  0  0
   29.2240  -22.3920   36.9593 C   0  0  0  0  0  0  0  0  0  0  0  0
   29.4762  -23.8119   36.8021 N   0  0  0  0  0  0  0  0  0  0  0  0
   28.6192  -24.6084   37.6246 C   0  0  0  0  0  0  0  0  0  0  0  0
   27.6396  -25.3186   36.7098 C   0  0  0  0  0  0  0  0  0  0  0  0
   28.4671  -25.4725   35.4493 C   0  0  0  0  0  0  0  0  0  0  0  0
   29.2434  -24.1738   35.4248 C   0  0  0  0  0  0  0  0  0  0  0  0
 17 18  1  0  0  0
 18  1  1  0  0  0
  1  2  2  0  0  0
  2  3  1  0  0  0
  3  4  2  0  0  0
  4 19  1  0  0  0
 19 21  1  0  0  0
 21 22  1  0  0  0
 22 23  1  0  0  0
 23 24  1  0  0  0
 23 25  1  0  0  0
 25 26  1  0  0  0
 26 27  1  0  0  0
 27 28  1  0  0  0
 27 29  1  0  0  0
  4  5  1  0  0  0
  5  6  2  0  0  0
  6  7  1  0  0  0
  7  8  2  0  0  0
  8  9  1  0  0  0
  9 10  2  0  0  0
 10 30  1  0  0  0
 30 31  1  0  0  0
 31 32  1  0  0  0
 32 33  1  0  0  0
 33 34  1  0  0  0
 34 35  1  0  0  0
 35 36  1  0  0  0
 36 37  1  0  0  0
 37 38  1  0  0  0
  6 11  1  0  0  0
 11 12  2  0  0  0
 12 13  1  0  0  0
 13 14  2  0  0  0
 14 15  1  0  0  0
 14 16  1  0  0  0
 10  1  1  0  0  0
 38 34  1  0  0  0
 16 11  1  0  0  0
  8  3  1  0  0  0
 24 21  1  0  0  0
 29 23  1  0  0  0
 19 20  1  0  0  0
M  END
> <minimizedAffinity>
-6.84514

> <CNNscore>
0.3882257342

> <CNNaffinity>
6.3778657913

> <CNN_VS>
2.4760515690

> <CNNaffinity_variance>
0.2042697370

$$$$
[H]c1c(-c2nc3c([H])c(OC([H])([H])C([H])([H])C([H])([H])N4C([H])([H])C([H])([H])C([H])([H])C4([H])[H])c(OC([H])([H])[H])c([H])c3c(N([H])C3([H])C([H])([H])C4(C([H])([H])N(C([H])([H])[H])C([H])([H])C4([H])[H])C3([H])[H])c2[H])oc(C([H])([H])[H])c1[H]


 38 43  0  0  0  0  0  0  0  0999 V2000
   37.5609  -19.6156   35.7183 C   0  0  0  0  0  0  0  0  0  0  0  0
   36.3221  -19.2239   35.2833 C   0  0  0  0  0  0  0  0  0  0  0  0
   35.8136  -17.9943   35.6241 C   0  0  0  0  0  0  0  0  0  0  0  0
   34.5653  -17.5578   35.2061 C   0  0  0  0  0  0  0  0  0  0  0  0
   34.0768  -16.3058   35.5680 C   0  0  0  0  0  0  0  0  0  0  0  0
   34.8786  -15.5168   36.3561 C   0  0  0  0  0  0  0  0  0  0  0  0
   36.0870  -15.9138   36.7730 N   0  0  0  0  0  0  0  0  0  0  0  0
   36.5663  -17.1348   36.4216 C   0  0  0  0  0  0  0  0  0  0  0  0
   37.7989  -17.5554   36.8395 C   0  0  0  0  0  0  0  0  0  0  0  0
   38.3057  -18.7677   36.5062 C   0  0  0  0  0  0  0  0  0  0  0  0
   34.4006  -14.1777   36.7660 C   0  0  0  0  0  0  0  0  0  0  0  0
   35.1459  -13.0219   36.8474 C   0  0  0  0  0  0  0  0  0  0  0  0
   34.3173  -12.0043   37.2685 C   0  0  0  0  0  0  0  0  0  0  0  0
   33.0777  -12.5870   37.4309 C   0  0  0  0  0  0  0  0  0  0  0  0
   31.8391  -11.8590   37.8841 C   0  0  0  0  0  0  0  0  0  0  0  0
   33.1832  -13.8533   37.1246 O   0  0  0  0  0  0  0  0  0  0  0  0
   38.7970  -20.9628   34.1566 C   0  0  0  0  0  0  0  0  0  0  0  0
   38.1064  -20.8657   35.3864 O   0  0  0  0  0  0  0  0  0  0  0  0
   33.7487  -18.3790   34.3950 N   0  0  0  0  0  0  0  0  0  0  0  0
   34.0297  -18.7427   33.4684 H   0  0  0  0  0  0  0  0  0  0  0  0
   32.4164  -18.7754   34.8317 C   0  0  0  0  0  0  0  0  0  0  0  0
   31.7024  -19.7045   33.8777 C   0  0  0  0  0  0  0  0  0  0  0  0
   31.5082  -20.7088   34.9639 C   0  0  0  0  0  0  0  0  0  0  0  0
   32.4121  -19.8993   35.8478 C   0  0  0  0  0  0  0  0  0  0  0  0
   30.0985  -20.8785   35.4347 C   0  0  0  0  0  0  0  0  0  0  0  0
   29.8793  -22.3484   35.5862 C   0  0  0  0  0  0  0  0  0  0  0  0
   31.1298  -23.0171   35.3480 N   0  0  0  0  0  0  0  0  0  0  0  0
   30.9696  -24.2647   34.6404 C   0  0  0  0  0  0  0  0  0  0  0  0
   32.0059  -22.0973   34.6806 C   0  0  0  0  0  0  0  0  0  0  0  0
   39.5481  -19.1870   36.9296 O   0  0  0  0  0  0  0  0  0  0  0  0
   40.7617  -18.7561   36.3528 C   0  0  0  0  0  0  0  0  0  0  0  0
   41.8632  -19.1493   37.3455 C   0  0  0  0  0  0  0  0  0  0  0  0
   41.1950  -20.0054   38.3975 C   0  0  0  0  0  0  0  0  0  0  0  0
   42.1296  -20.2799   39.4725 N   0  0  0  0  0  0  0  0  0  0  0  0
   43.3379  -19.5254   39.3454 C   0  0  0  0  0  0  0  0  0  0  0  0
   43.3438  -18.4839   40.4481 C   0  0  0  0  0  0  0  0  0  0  0  0
   42.5575  -19.1935   41.5323 C   0  0  0  0  0  0  0  0  0  0  0  0
   41.5085  -19.9289   40.7268 C   0  0  0  0  0  0  0  0  0  0  0  0
 17 18  1  0  0  0
 18  1  1  0  0  0
  1  2  2  0  0  0
  2  3  1  0  0  0
  3  4  2  0  0  0
  4 19  1  0  0  0
 19 21  1  0  0  0
 21 22  1  0  0  0
 22 23  1  0  0  0
 23 24  1  0  0  0
 23 25  1  0  0  0
 25 26  1  0  0  0
 26 27  1  0  0  0
 27 28  1  0  0  0
 27 29  1  0  0  0
  4  5  1  0  0  0
  5  6  2  0  0  0
  6  7  1  0  0  0
  7  8  2  0  0  0
  8  9  1  0  0  0
  9 10  2  0  0  0
 10 30  1  0  0  0
 30 31  1  0  0  0
 31 32  1  0  0  0
 32 33  1  0  0  0
 33 34  1  0  0  0
 34 35  1  0  0  0
 35 36  1  0  0  0
 36 37  1  0  0  0
 37 38  1  0  0  0
  6 11  1  0  0  0
 11 12  2  0  0  0
 12 13  1  0  0  0
 13 14  2  0  0  0
 14 15  1  0  0  0
 14 16  1  0  0  0
 10  1  1  0  0  0
 38 34  1  0  0  0
 16 11  1  0  0  0
  8  3  1  0  0  0
 24 21  1  0  0  0
 29 23  1  0  0  0
 19 20  1  0  0  0
M  END
> <minimizedAffinity>
-7.75494

> <CNNscore>
0.3581963181

> <CNNaffinity>
6.3706836700

> <CNN_VS>
2.2819554806

> <CNNaffinity_variance>
0.2415070534

$$$$
[H]c1c(-c2nc3c([H])c(OC([H])([H])C([H])([H])C([H])([H])N4C([H])([H])C([H])([H])C([H])([H])C4([H])[H])c(OC([H])([H])[H])c([H])c3c(N([H])C3([H])C([H])([H])C4(C([H])([H])N(C([H])([H])[H])C([H])([H])C4([H])[H])C3([H])[H])c2[H])oc(C([H])([H])[H])c1[H]


 38 43  0  0  0  0  0  0  0  0999 V2000
   36.4645  -22.5025   37.6215 C   0  0  0  0  0  0  0  0  0  0  0  0
   35.6651  -21.7546   36.7976 C   0  0  0  0  0  0  0  0  0  0  0  0
   35.7829  -20.3868   36.7557 C   0  0  0  0  0  0  0  0  0  0  0  0
   34.9948  -19.5916   35.9371 C   0  0  0  0  0  0  0  0  0  0  0  0
   35.1376  -18.2073   35.9165 C   0  0  0  0  0  0  0  0  0  0  0  0
   36.0901  -17.6567   36.7388 C   0  0  0  0  0  0  0  0  0  0  0  0
   36.8637  -18.4011   37.5382 N   0  0  0  0  0  0  0  0  0  0  0  0
   36.7268  -19.7520   37.5605 C   0  0  0  0  0  0  0  0  0  0  0  0
   37.5093  -20.5267   38.3718 C   0  0  0  0  0  0  0  0  0  0  0  0
   37.3972  -21.8770   38.4171 C   0  0  0  0  0  0  0  0  0  0  0  0
   36.2773  -16.1889   36.7508 C   0  0  0  0  0  0  0  0  0  0  0  0
   35.4366  -15.2427   36.2068 C   0  0  0  0  0  0  0  0  0  0  0  0
   35.9818  -13.9983   36.4387 C   0  0  0  0  0  0  0  0  0  0  0  0
   37.1536  -14.2361   37.1264 C   0  0  0  0  0  0  0  0  0  0  0  0
   38.1027  -13.1669   37.6015 C   0  0  0  0  0  0  0  0  0  0  0  0
   37.2764  -15.5281   37.2810 O   0  0  0  0  0  0  0  0  0  0  0  0
   35.4221  -24.5222   36.8367 C   0  0  0  0  0  0  0  0  0  0  0  0
   36.3668  -23.9014   37.6857 O   0  0  0  0  0  0  0  0  0  0  0  0
   34.0174  -20.1699   35.0949 N   0  0  0  0  0  0  0  0  0  0  0  0
   34.2330  -20.7925   34.2976 H   0  0  0  0  0  0  0  0  0  0  0  0
   32.5990  -19.9140   35.3077 C   0  0  0  0  0  0  0  0  0  0  0  0
   31.6889  -20.6122   34.3241 C   0  0  0  0  0  0  0  0  0  0  0  0
   30.9417  -21.2616   35.4403 C   0  0  0  0  0  0  0  0  0  0  0  0
   31.9795  -20.7595   36.4017 C   0  0  0  0  0  0  0  0  0  0  0  0
   29.5466  -20.7648   35.6515 C   0  0  0  0  0  0  0  0  0  0  0  0
   28.7012  -21.9729   35.8908 C   0  0  0  0  0  0  0  0  0  0  0  0
   29.5642  -23.1215   35.9526 N   0  0  0  0  0  0  0  0  0  0  0  0
   28.9802  -24.2918   35.3426 C   0  0  0  0  0  0  0  0  0  0  0  0
   30.8295  -22.7582   35.3815 C   0  0  0  0  0  0  0  0  0  0  0  0
   38.1879  -22.6533   39.2361 O   0  0  0  0  0  0  0  0  0  0  0  0
   39.5851  -22.7829   39.0866 C   0  0  0  0  0  0  0  0  0  0  0  0
   40.1319  -23.0922   40.4861 C   0  0  0  0  0  0  0  0  0  0  0  0
   41.3810  -22.2551   40.6439 C   0  0  0  0  0  0  0  0  0  0  0  0
   41.0668  -20.8575   40.4147 N   0  0  0  0  0  0  0  0  0  0  0  0
   40.7936  -20.1573   41.6314 C   0  0  0  0  0  0  0  0  0  0  0  0
   41.9504  -19.2086   41.8818 C   0  0  0  0  0  0  0  0  0  0  0  0
   42.3900  -18.8946   40.4656 C   0  0  0  0  0  0  0  0  0  0  0  0
   42.1972  -20.2277   39.7759 C   0  0  0  0  0  0  0  0  0  0  0  0
 17 18  1  0  0  0
 18  1  1  0  0  0
  1  2  2  0  0  0
  2  3  1  0  0  0
  3  4  2  0  0  0
  4 19  1  0  0  0
 19 21  1  0  0  0
 21 22  1  0  0  0
 22 23  1  0  0  0
 23 24  1  0  0  0
 23 25  1  0  0  0
 25 26  1  0  0  0
 26 27  1  0  0  0
 27 28  1  0  0  0
 27 29  1  0  0  0
  4  5  1  0  0  0
  5  6  2  0  0  0
  6  7  1  0  0  0
  7  8  2  0  0  0
  8  9  1  0  0  0
  9 10  2  0  0  0
 10 30  1  0  0  0
 30 31  1  0  0  0
 31 32  1  0  0  0
 32 33  1  0  0  0
 33 34  1  0  0  0
 34 35  1  0  0  0
 35 36  1  0  0  0
 36 37  1  0  0  0
 37 38  1  0  0  0
  6 11  1  0  0  0
 11 12  2  0  0  0
 12 13  1  0  0  0
 13 14  2  0  0  0
 14 15  1  0  0  0
 14 16  1  0  0  0
 10  1  1  0  0  0
 38 34  1  0  0  0
 16 11  1  0  0  0
  8  3  1  0  0  0
 24 21  1  0  0  0
 29 23  1  0  0  0
 19 20  1  0  0  0
M  END
> <minimizedAffinity>
-6.26988

> <CNNscore>
0.3173242509

> <CNNaffinity>
5.9850816727

> <CNN_VS>
1.8992115259

> <CNNaffinity_variance>
0.0870015174

$$$$
[H]c1c(-c2nc3c([H])c(OC([H])([H])C([H])([H])C([H])([H])N4C([H])([H])C([H])([H])C([H])([H])C4([H])[H])c(OC([H])([H])[H])c([H])c3c(N([H])C3([H])C([H])([H])C4(C([H])([H])N(C([H])([H])[H])C([H])([H])C4([H])[H])C3([H])[H])c2[H])oc(C([H])([H])[H])c1[H]


 38 43  0  0  0  0  0  0  0  0999 V2000
   37.4627  -19.6746   35.7908 C   0  0  0  0  0  0  0  0  0  0  0  0
   36.2141  -19.2940   35.3743 C   0  0  0  0  0  0  0  0  0  0  0  0
   35.7197  -18.0497   35.6806 C   0  0  0  0  0  0  0  0  0  0  0  0
   34.4622  -17.6236   35.2796 C   0  0  0  0  0  0  0  0  0  0  0  0
   33.9885  -16.3561   35.6055 C   0  0  0  0  0  0  0  0  0  0  0  0
   34.8144  -15.5411   36.3405 C   0  0  0  0  0  0  0  0  0  0  0  0
   36.0321  -15.9276   36.7400 N   0  0  0  0  0  0  0  0  0  0  0  0
   36.4971  -17.1636   36.4236 C   0  0  0  0  0  0  0  0  0  0  0  0
   37.7388  -17.5736   36.8242 C   0  0  0  0  0  0  0  0  0  0  0  0
   38.2318  -18.8005   36.5248 C   0  0  0  0  0  0  0  0  0  0  0  0
   34.3528  -14.1848   36.7108 C   0  0  0  0  0  0  0  0  0  0  0  0
   35.1086  -13.0335   36.7437 C   0  0  0  0  0  0  0  0  0  0  0  0
   34.2940  -11.9950   37.1404 C   0  0  0  0  0  0  0  0  0  0  0  0
   33.0517  -12.5611   37.3378 C   0  0  0  0  0  0  0  0  0  0  0  0
   31.8251  -11.8073   37.7815 C   0  0  0  0  0  0  0  0  0  0  0  0
   33.1428  -13.8379   37.0733 O   0  0  0  0  0  0  0  0  0  0  0  0
   37.8119  -21.9590   36.4553 C   0  0  0  0  0  0  0  0  0  0  0  0
   37.9942  -20.9393   35.4931 O   0  0  0  0  0  0  0  0  0  0  0  0
   33.6208  -18.4716   34.5233 N   0  0  0  0  0  0  0  0  0  0  0  0
   33.8717  -18.8652   33.6002 H   0  0  0  0  0  0  0  0  0  0  0  0
   32.3046  -18.8547   35.0167 C   0  0  0  0  0  0  0  0  0  0  0  0
   31.4997  -19.6915   34.0497 C   0  0  0  0  0  0  0  0  0  0  0  0
   31.3365  -20.7625   35.0755 C   0  0  0  0  0  0  0  0  0  0  0  0
   32.3221  -20.0462   35.9524 C   0  0  0  0  0  0  0  0  0  0  0  0
   29.9534  -20.9195   35.6231 C   0  0  0  0  0  0  0  0  0  0  0  0
   29.6906  -22.3886   35.6884 C   0  0  0  0  0  0  0  0  0  0  0  0
   30.8989  -23.0788   35.3258 N   0  0  0  0  0  0  0  0  0  0  0  0
   30.6500  -24.2680   34.5470 C   0  0  0  0  0  0  0  0  0  0  0  0
   31.7649  -22.1430   34.6674 C   0  0  0  0  0  0  0  0  0  0  0  0
   39.4835  -19.2091   36.9307 O   0  0  0  0  0  0  0  0  0  0  0  0
   40.6642  -18.9734   36.1947 C   0  0  0  0  0  0  0  0  0  0  0  0
   41.8092  -18.9986   37.2152 C   0  0  0  0  0  0  0  0  0  0  0  0
   43.0055  -19.5730   36.4907 C   0  0  0  0  0  0  0  0  0  0  0  0
   44.0457  -18.5670   36.3874 N   0  0  0  0  0  0  0  0  0  0  0  0
   44.1476  -18.0270   35.0670 C   0  0  0  0  0  0  0  0  0  0  0  0
   43.6408  -16.5983   35.1177 C   0  0  0  0  0  0  0  0  0  0  0  0
   44.0019  -16.2043   36.5361 C   0  0  0  0  0  0  0  0  0  0  0  0
   43.7370  -17.4873   37.2936 C   0  0  0  0  0  0  0  0  0  0  0  0
 17 18  1  0  0  0
 18  1  1  0  0  0
  1  2  2  0  0  0
  2  3  1  0  0  0
  3  4  2  0  0  0
  4 19  1  0  0  0
 19 21  1  0  0  0
 21 22  1  0  0  0
 22 23  1  0  0  0
 23 24  1  0  0  0
 23 25  1  0  0  0
 25 26  1  0  0  0
 26 27  1  0  0  0
 27 28  1  0  0  0
 27 29  1  0  0  0
  4  5  1  0  0  0
  5  6  2  0  0  0
  6  7  1  0  0  0
  7  8  2  0  0  0
  8  9  1  0  0  0
  9 10  2  0  0  0
 10 30  1  0  0  0
 30 31  1  0  0  0
 31 32  1  0  0  0
 32 33  1  0  0  0
 33 34  1  0  0  0
 34 35  1  0  0  0
 35 36  1  0  0  0
 36 37  1  0  0  0
 37 38  1  0  0  0
  6 11  1  0  0  0
 11 12  2  0  0  0
 12 13  1  0  0  0
 13 14  2  0  0  0
 14 15  1  0  0  0
 14 16  1  0  0  0
 10  1  1  0  0  0
 38 34  1  0  0  0
 16 11  1  0  0  0
  8  3  1  0  0  0
 24 21  1  0  0  0
 29 23  1  0  0  0
 19 20  1  0  0  0
M  END
> <minimizedAffinity>
-7.68172

> <CNNscore>
0.3053726256

> <CNNaffinity>
6.3631920815

> <CNN_VS>
1.9431446791

> <CNNaffinity_variance>
0.2366985381

$$$$
[H]c1c(-c2nc3c([H])c(OC([H])([H])C([H])([H])C([H])([H])N4C([H])([H])C([H])([H])C([H])([H])C4([H])[H])c(OC([H])([H])[H])c([H])c3c(N([H])C3([H])C([H])([H])C([H])([H])N(C4([H])C([H])([H])C4([H])[H])C([H])([H])C3([H])[H])c2[H])oc(C([H])([H])C([H])([H])[H])c1[H]


 39 44  0  0  0  0  0  0  0  0999 V2000
   33.7302  -18.2350   35.6339 C   0  0  0  0  0  0  0  0  0  0  0  0
   35.0150  -18.5829   35.9493 C   0  0  0  0  0  0  0  0  0  0  0  0
   35.9729  -17.6266   36.3168 C   0  0  0  0  0  0  0  0  0  0  0  0
   35.5931  -16.3156   36.3550 C   0  0  0  0  0  0  0  0  0  0  0  0
   36.4812  -15.3263   36.7097 C   0  0  0  0  0  0  0  0  0  0  0  0
   36.1172  -14.0057   36.7566 C   0  0  0  0  0  0  0  0  0  0  0  0
   34.7853  -13.6561   36.4291 C   0  0  0  0  0  0  0  0  0  0  0  0
   33.9056  -14.6467   36.0755 C   0  0  0  0  0  0  0  0  0  0  0  0
   34.2682  -15.9739   36.0280 C   0  0  0  0  0  0  0  0  0  0  0  0
   33.4065  -16.9365   35.6863 N   0  0  0  0  0  0  0  0  0  0  0  0
   30.8849  -20.3554   35.1681 C   0  0  0  0  0  0  0  0  0  0  0  0
   31.7346  -20.9793   34.3125 C   0  0  0  0  0  0  0  0  0  0  0  0
   32.9284  -20.2858   34.3528 C   0  0  0  0  0  0  0  0  0  0  0  0
   32.7347  -19.2588   35.2479 C   0  0  0  0  0  0  0  0  0  0  0  0
   31.5072  -19.3503   35.6984 O   0  0  0  0  0  0  0  0  0  0  0  0
   29.3897  -22.1287   36.0794 C   0  0  0  0  0  0  0  0  0  0  0  0
   29.4671  -20.7493   35.4603 C   0  0  0  0  0  0  0  0  0  0  0  0
   37.2924  -18.0215   36.6130 N   0  0  0  0  0  0  0  0  0  0  0  0
   37.9079  -17.5119   37.2747 H   0  0  0  0  0  0  0  0  0  0  0  0
   37.9035  -19.2067   35.9904 C   0  0  0  0  0  0  0  0  0  0  0  0
   38.6756  -18.7090   34.7848 C   0  0  0  0  0  0  0  0  0  0  0  0
   39.9943  -19.4162   34.6020 C   0  0  0  0  0  0  0  0  0  0  0  0
   40.8479  -19.3206   35.7509 N   0  0  0  0  0  0  0  0  0  0  0  0
   40.1264  -18.8276   36.8797 C   0  0  0  0  0  0  0  0  0  0  0  0
   38.8942  -19.7324   37.0457 C   0  0  0  0  0  0  0  0  0  0  0  0
   42.0693  -18.5855   35.4937 C   0  0  0  0  0  0  0  0  0  0  0  0
   42.6681  -18.6750   34.1117 C   0  0  0  0  0  0  0  0  0  0  0  0
   43.2748  -19.4650   35.2298 C   0  0  0  0  0  0  0  0  0  0  0  0
   37.0333  -13.0505   37.1150 O   0  0  0  0  0  0  0  0  0  0  0  0
   38.3040  -13.4487   37.5719 C   0  0  0  0  0  0  0  0  0  0  0  0
   34.5210  -12.3297   36.5093 O   0  0  0  0  0  0  0  0  0  0  0  0
   33.8209  -11.6073   37.4418 C   0  0  0  0  0  0  0  0  0  0  0  0
   32.6912  -12.3064   38.1365 C   0  0  0  0  0  0  0  0  0  0  0  0
   31.3668  -11.9848   37.5754 C   0  0  0  0  0  0  0  0  0  0  0  0
   30.2591  -11.6820   38.3279 N   0  0  0  0  0  0  0  0  0  0  0  0
   29.6653  -12.4825   39.2870 C   0  0  0  0  0  0  0  0  0  0  0  0
   28.1603  -12.5322   39.0214 C   0  0  0  0  0  0  0  0  0  0  0  0
   27.9277  -11.5036   37.9488 C   0  0  0  0  0  0  0  0  0  0  0  0
   29.2623  -10.8387   37.7050 C   0  0  0  0  0  0  0  0  0  0  0  0
 16 17  1  0  0  0
 17 11  1  0  0  0
 11 12  2  0  0  0
 12 13  1  0  0  0
 13 14  2  0  0  0
 14 15  1  0  0  0
 14  1  1  0  0  0
  1  2  2  0  0  0
  2  3  1  0  0  0
  3 18  1  0  0  0
 18 20  1  0  0  0
 20 21  1  0  0  0
 21 22  1  0  0  0
 22 23  1  0  0  0
 23 24  1  0  0  0
 24 25  1  0  0  0
 23 26  1  0  0  0
 26 27  1  0  0  0
 27 28  1  0  0  0
  3  4  2  0  0  0
  4  5  1  0  0  0
  5  6  2  0  0  0
  6 29  1  0  0  0
 29 30  1  0  0  0
  6  7  1  0  0  0
  7 31  1  0  0  0
 31 32  1  0  0  0
 32 33  1  0  0  0
 33 34  1  0  0  0
 34 35  1  0  0  0
 35 36  1  0  0  0
 36 37  1  0  0  0
 37 38  1  0  0  0
 38 39  1  0  0  0
  7  8  2  0  0  0
  8  9  1  0  0  0
  9 10  2  0  0  0
 15 11  1  0  0  0
 10  1  1  0  0  0
 25 20  1  0  0  0
 28 26  1  0  0  0
  9  4  1  0  0  0
 39 35  1  0  0  0
 18 19  1  0  0  0
M  END
> <minimizedAffinity>
-8.59116

> <CNNscore>
0.5822978616

> <CNNaffinity>
7.2578873634

> <CNN_VS>
4.2262520790

> <CNNaffinity_variance>
0.1887106001

$$$$
[H]c1c(-c2nc3c([H])c(OC([H])([H])C([H])([H])C([H])([H])N4C([H])([H])C([H])([H])C([H])([H])C4([H])[H])c(OC([H])([H])[H])c([H])c3c(N([H])C3([H])C([H])([H])C([H])([H])N(C4([H])C([H])([H])C4([H])[H])C([H])([H])C3([H])[H])c2[H])oc(C([H])([H])C([H])([H])[H])c1[H]


 39 44  0  0  0  0  0  0  0  0999 V2000
   34.2941  -16.4965   35.7554 C   0  0  0  0  0  0  0  0  0  0  0  0
   35.3304  -17.2572   35.2879 C   0  0  0  0  0  0  0  0  0  0  0  0
   35.1430  -18.5763   34.8499 C   0  0  0  0  0  0  0  0  0  0  0  0
   33.8825  -19.0989   34.8991 C   0  0  0  0  0  0  0  0  0  0  0  0
   33.6274  -20.3852   34.4827 C   0  0  0  0  0  0  0  0  0  0  0  0
   32.3683  -20.9255   34.5220 C   0  0  0  0  0  0  0  0  0  0  0  0
   31.3025  -20.1301   35.0068 C   0  0  0  0  0  0  0  0  0  0  0  0
   31.5638  -18.8494   35.4212 C   0  0  0  0  0  0  0  0  0  0  0  0
   32.8272  -18.3039   35.3824 C   0  0  0  0  0  0  0  0  0  0  0  0
   33.0766  -17.0540   35.7840 N   0  0  0  0  0  0  0  0  0  0  0  0
   34.1538  -13.2057   37.1553 C   0  0  0  0  0  0  0  0  0  0  0  0
   35.3889  -13.1272   36.5970 C   0  0  0  0  0  0  0  0  0  0  0  0
   35.6339  -14.3423   35.9878 C   0  0  0  0  0  0  0  0  0  0  0  0
   34.5126  -15.1071   36.2137 C   0  0  0  0  0  0  0  0  0  0  0  0
   33.6707  -14.3825   36.9094 O   0  0  0  0  0  0  0  0  0  0  0  0
   33.8482  -10.7484   37.4356 C   0  0  0  0  0  0  0  0  0  0  0  0
   33.4550  -12.1254   37.9267 C   0  0  0  0  0  0  0  0  0  0  0  0
   36.2394  -19.3358   34.3959 N   0  0  0  0  0  0  0  0  0  0  0  0
   36.1542  -20.3033   34.0314 H   0  0  0  0  0  0  0  0  0  0  0  0
   37.6102  -18.8004   34.4097 C   0  0  0  0  0  0  0  0  0  0  0  0
   38.1174  -18.9542   35.8298 C   0  0  0  0  0  0  0  0  0  0  0  0
   39.5636  -19.3751   35.8919 C   0  0  0  0  0  0  0  0  0  0  0  0
   39.8243  -20.5978   35.1885 N   0  0  0  0  0  0  0  0  0  0  0  0
   38.7129  -20.9586   34.3686 C   0  0  0  0  0  0  0  0  0  0  0  0
   38.4035  -19.7402   33.4830 C   0  0  0  0  0  0  0  0  0  0  0  0
   40.2610  -21.6723   36.0562 C   0  0  0  0  0  0  0  0  0  0  0  0
   41.3110  -21.3584   37.0932 C   0  0  0  0  0  0  0  0  0  0  0  0
   41.7030  -22.0880   35.8457 C   0  0  0  0  0  0  0  0  0  0  0  0
   32.1567  -22.2120   34.0975 O   0  0  0  0  0  0  0  0  0  0  0  0
   32.2208  -23.2662   35.0285 C   0  0  0  0  0  0  0  0  0  0  0  0
   30.0975  -20.7493   35.0021 O   0  0  0  0  0  0  0  0  0  0  0  0
   29.4090  -21.3840   36.0044 C   0  0  0  0  0  0  0  0  0  0  0  0
   28.4593  -20.5507   36.8113 C   0  0  0  0  0  0  0  0  0  0  0  0
   27.6492  -21.3349   37.7605 C   0  0  0  0  0  0  0  0  0  0  0  0
   28.0730  -21.7181   39.0089 N   0  0  0  0  0  0  0  0  0  0  0  0
   28.7011  -22.9045   39.3423 C   0  0  0  0  0  0  0  0  0  0  0  0
   27.9981  -23.5068   40.5593 C   0  0  0  0  0  0  0  0  0  0  0  0
   27.0476  -22.4359   41.0199 C   0  0  0  0  0  0  0  0  0  0  0  0
   27.2980  -21.2391   40.1326 C   0  0  0  0  0  0  0  0  0  0  0  0
 16 17  1  0  0  0
 17 11  1  0  0  0
 11 12  2  0  0  0
 12 13  1  0  0  0
 13 14  2  0  0  0
 14 15  1  0  0  0
 14  1  1  0  0  0
  1  2  2  0  0  0
  2  3  1  0  0  0
  3 18  1  0  0  0
 18 20  1  0  0  0
 20 21  1  0  0  0
 21 22  1  0  0  0
 22 23  1  0  0  0
 23 24  1  0  0  0
 24 25  1  0  0  0
 23 26  1  0  0  0
 26 27  1  0  0  0
 27 28  1  0  0  0
  3  4  2  0  0  0
  4  5  1  0  0  0
  5  6  2  0  0  0
  6 29  1  0  0  0
 29 30  1  0  0  0
  6  7  1  0  0  0
  7 31  1  0  0  0
 31 32  1  0  0  0
 32 33  1  0  0  0
 33 34  1  0  0  0
 34 35  1  0  0  0
 35 36  1  0  0  0
 36 37  1  0  0  0
 37 38  1  0  0  0
 38 39  1  0  0  0
  7  8  2  0  0  0
  8  9  1  0  0  0
  9 10  2  0  0  0
 15 11  1  0  0  0
 10  1  1  0  0  0
 25 20  1  0  0  0
 28 26  1  0  0  0
  9  4  1  0  0  0
 39 35  1  0  0  0
 18 19  1  0  0  0
M  END
> <minimizedAffinity>
-6.57495

> <CNNscore>
0.4814162552

> <CNNaffinity>
6.4579367638

> <CNN_VS>
3.1089556217

> <CNNaffinity_variance>
0.1560054272

$$$$
[H]c1c(-c2nc3c([H])c(OC([H])([H])C([H])([H])C([H])([H])N4C([H])([H])C([H])([H])C([H])([H])C4([H])[H])c(OC([H])([H])[H])c([H])c3c(N([H])C3([H])C([H])([H])C([H])([H])N(C4([H])C([H])([H])C4([H])[H])C([H])([H])C3([H])[H])c2[H])oc(C([H])([H])C([H])([H])[H])c1[H]


 39 44  0  0  0  0  0  0  0  0999 V2000
   34.7192  -16.4658   35.9003 C   0  0  0  0  0  0  0  0  0  0  0  0
   35.7129  -17.3716   35.6485 C   0  0  0  0  0  0  0  0  0  0  0  0
   35.4331  -18.6884   35.2548 C   0  0  0  0  0  0  0  0  0  0  0  0
   34.1252  -19.0582   35.1248 C   0  0  0  0  0  0  0  0  0  0  0  0
   33.7799  -20.3332   34.7397 C   0  0  0  0  0  0  0  0  0  0  0  0
   32.4726  -20.7213   34.6009 C   0  0  0  0  0  0  0  0  0  0  0  0
   31.4519  -19.7766   34.8632 C   0  0  0  0  0  0  0  0  0  0  0  0
   31.8028  -18.5080   35.2475 C   0  0  0  0  0  0  0  0  0  0  0  0
   33.1148  -18.1151   35.3873 C   0  0  0  0  0  0  0  0  0  0  0  0
   33.4524  -16.8765   35.7587 N   0  0  0  0  0  0  0  0  0  0  0  0
   34.7556  -13.0468   36.9578 C   0  0  0  0  0  0  0  0  0  0  0  0
   36.0961  -13.2292   36.8428 C   0  0  0  0  0  0  0  0  0  0  0  0
   36.2917  -14.5328   36.4305 C   0  0  0  0  0  0  0  0  0  0  0  0
   35.0351  -15.0815   36.3153 C   0  0  0  0  0  0  0  0  0  0  0  0
   34.1658  -14.1557   36.6399 O   0  0  0  0  0  0  0  0  0  0  0  0
   32.8518  -12.0776   38.2409 C   0  0  0  0  0  0  0  0  0  0  0  0
   34.0615  -11.7853   37.3788 C   0  0  0  0  0  0  0  0  0  0  0  0
   36.4837  -19.5989   35.0261 N   0  0  0  0  0  0  0  0  0  0  0  0
   36.3803  -20.4620   34.4598 H   0  0  0  0  0  0  0  0  0  0  0  0
   37.8273  -19.3869   35.5876 C   0  0  0  0  0  0  0  0  0  0  0  0
   38.2761  -20.7231   36.1449 C   0  0  0  0  0  0  0  0  0  0  0  0
   39.7352  -21.0030   35.8895 C   0  0  0  0  0  0  0  0  0  0  0  0
   40.0813  -20.9592   34.4981 N   0  0  0  0  0  0  0  0  0  0  0  0
   39.0252  -20.3823   33.7303 C   0  0  0  0  0  0  0  0  0  0  0  0
   38.7026  -19.0235   34.3738 C   0  0  0  0  0  0  0  0  0  0  0  0
   40.5254  -22.2373   33.9809 C   0  0  0  0  0  0  0  0  0  0  0  0
   41.6428  -22.9426   34.7092 C   0  0  0  0  0  0  0  0  0  0  0  0
   41.9368  -22.2229   33.4293 C   0  0  0  0  0  0  0  0  0  0  0  0
   32.1712  -22.0021   34.2150 O   0  0  0  0  0  0  0  0  0  0  0  0
   32.2946  -23.0513   35.1456 C   0  0  0  0  0  0  0  0  0  0  0  0
   30.1946  -20.2523   34.6940 O   0  0  0  0  0  0  0  0  0  0  0  0
   29.4445  -21.1042   35.4643 C   0  0  0  0  0  0  0  0  0  0  0  0
   28.8611  -20.5449   36.7269 C   0  0  0  0  0  0  0  0  0  0  0  0
   27.8918  -21.4455   37.3762 C   0  0  0  0  0  0  0  0  0  0  0  0
   28.1905  -22.7046   37.8350 N   0  0  0  0  0  0  0  0  0  0  0  0
   29.3338  -23.0899   38.5115 C   0  0  0  0  0  0  0  0  0  0  0  0
   29.8927  -24.3510   37.8520 C   0  0  0  0  0  0  0  0  0  0  0  0
   28.8324  -24.7709   36.8712 C   0  0  0  0  0  0  0  0  0  0  0  0
   27.6781  -23.8152   37.0625 C   0  0  0  0  0  0  0  0  0  0  0  0
 16 17  1  0  0  0
 17 11  1  0  0  0
 11 12  2  0  0  0
 12 13  1  0  0  0
 13 14  2  0  0  0
 14 15  1  0  0  0
 14  1  1  0  0  0
  1  2  2  0  0  0
  2  3  1  0  0  0
  3 18  1  0  0  0
 18 20  1  0  0  0
 20 21  1  0  0  0
 21 22  1  0  0  0
 22 23  1  0  0  0
 23 24  1  0  0  0
 24 25  1  0  0  0
 23 26  1  0  0  0
 26 27  1  0  0  0
 27 28  1  0  0  0
  3  4  2  0  0  0
  4  5  1  0  0  0
  5  6  2  0  0  0
  6 29  1  0  0  0
 29 30  1  0  0  0
  6  7  1  0  0  0
  7 31  1  0  0  0
 31 32  1  0  0  0
 32 33  1  0  0  0
 33 34  1  0  0  0
 34 35  1  0  0  0
 35 36  1  0  0  0
 36 37  1  0  0  0
 37 38  1  0  0  0
 38 39  1  0  0  0
  7  8  2  0  0  0
  8  9  1  0  0  0
  9 10  2  0  0  0
 15 11  1  0  0  0
 10  1  1  0  0  0
 25 20  1  0  0  0
 28 26  1  0  0  0
  9  4  1  0  0  0
 39 35  1  0  0  0
 18 19  1  0  0  0
M  END
> <minimizedAffinity>
-6.45983

> <CNNscore>
0.3439649045

> <CNNaffinity>
6.3385438919

> <CNN_VS>
2.1802365780

> <CNNaffinity_variance>
0.2157725096

$$$$
[H]c1c(-c2nc3c([H])c(OC([H])([H])C([H])([H])C([H])([H])N4C([H])([H])C([H])([H])C([H])([H])C4([H])[H])c(OC([H])([H])[H])c([H])c3c(N([H])C3([H])C([H])([H])C([H])([H])N(C4([H])C([H])([H])C4([H])[H])C([H])([H])C3([H])[H])c2[H])oc(C([H])([H])C([H])([H])[H])c1[H]


 39 44  0  0  0  0  0  0  0  0999 V2000
   36.5734  -17.1156   37.1163 C   0  0  0  0  0  0  0  0  0  0  0  0
   37.7596  -17.7019   36.7694 C   0  0  0  0  0  0  0  0  0  0  0  0
   37.9058  -19.0952   36.7016 C   0  0  0  0  0  0  0  0  0  0  0  0
   36.8217  -19.8721   36.9937 C   0  0  0  0  0  0  0  0  0  0  0  0
   36.8946  -21.2452   36.9442 C   0  0  0  0  0  0  0  0  0  0  0  0
   35.8161  -22.0409   37.2311 C   0  0  0  0  0  0  0  0  0  0  0  0
   34.5930  -21.4246   37.5884 C   0  0  0  0  0  0  0  0  0  0  0  0
   34.5274  -20.0558   37.6367 C   0  0  0  0  0  0  0  0  0  0  0  0
   35.6087  -19.2540   37.3486 C   0  0  0  0  0  0  0  0  0  0  0  0
   35.5393  -17.9202   37.3936 N   0  0  0  0  0  0  0  0  0  0  0  0
   35.5444  -13.6878   37.1296 C   0  0  0  0  0  0  0  0  0  0  0  0
   36.8607  -13.4969   37.4021 C   0  0  0  0  0  0  0  0  0  0  0  0
   37.4499  -14.7455   37.4396 C   0  0  0  0  0  0  0  0  0  0  0  0
   36.4397  -15.6439   37.1829 C   0  0  0  0  0  0  0  0  0  0  0  0
   35.3350  -14.9605   37.0076 O   0  0  0  0  0  0  0  0  0  0  0  0
   33.2101  -13.0109   37.6804 C   0  0  0  0  0  0  0  0  0  0  0  0
   34.4999  -12.6200   36.9906 C   0  0  0  0  0  0  0  0  0  0  0  0
   39.1502  -19.6623   36.3621 N   0  0  0  0  0  0  0  0  0  0  0  0
   39.6899  -20.2804   36.9968 H   0  0  0  0  0  0  0  0  0  0  0  0
   39.7854  -19.4105   35.0588 C   0  0  0  0  0  0  0  0  0  0  0  0
   41.2014  -19.9417   35.1611 C   0  0  0  0  0  0  0  0  0  0  0  0
   41.6591  -20.6329   33.9019 C   0  0  0  0  0  0  0  0  0  0  0  0
   40.8021  -21.7147   33.5108 N   0  0  0  0  0  0  0  0  0  0  0  0
   39.5790  -21.6848   34.2461 C   0  0  0  0  0  0  0  0  0  0  0  0
   38.9891  -20.2763   34.0650 C   0  0  0  0  0  0  0  0  0  0  0  0
   41.4581  -23.0055   33.5541 C   0  0  0  0  0  0  0  0  0  0  0  0
   42.9427  -23.0509   33.2889 C   0  0  0  0  0  0  0  0  0  0  0  0
   41.9894  -23.4729   32.2140 C   0  0  0  0  0  0  0  0  0  0  0  0
   35.9310  -23.4059   37.1701 O   0  0  0  0  0  0  0  0  0  0  0  0
   36.8023  -24.0664   38.0571 C   0  0  0  0  0  0  0  0  0  0  0  0
   33.5860  -22.2929   37.8484 O   0  0  0  0  0  0  0  0  0  0  0  0
   32.3736  -22.4740   37.2327 C   0  0  0  0  0  0  0  0  0  0  0  0
   32.3609  -22.4496   35.7338 C   0  0  0  0  0  0  0  0  0  0  0  0
   31.5267  -21.3732   35.1702 C   0  0  0  0  0  0  0  0  0  0  0  0
   32.0155  -20.3065   34.4573 N   0  0  0  0  0  0  0  0  0  0  0  0
   33.2132  -20.2502   33.7677 C   0  0  0  0  0  0  0  0  0  0  0  0
   33.9430  -18.9639   34.1558 C   0  0  0  0  0  0  0  0  0  0  0  0
   32.9421  -18.1868   34.9663 C   0  0  0  0  0  0  0  0  0  0  0  0
   31.6619  -18.9885   34.9375 C   0  0  0  0  0  0  0  0  0  0  0  0
 16 17  1  0  0  0
 17 11  1  0  0  0
 11 12  2  0  0  0
 12 13  1  0  0  0
 13 14  2  0  0  0
 14 15  1  0  0  0
 14  1  1  0  0  0
  1  2  2  0  0  0
  2  3  1  0  0  0
  3 18  1  0  0  0
 18 20  1  0  0  0
 20 21  1  0  0  0
 21 22  1  0  0  0
 22 23  1  0  0  0
 23 24  1  0  0  0
 24 25  1  0  0  0
 23 26  1  0  0  0
 26 27  1  0  0  0
 27 28  1  0  0  0
  3  4  2  0  0  0
  4  5  1  0  0  0
  5  6  2  0  0  0
  6 29  1  0  0  0
 29 30  1  0  0  0
  6  7  1  0  0  0
  7 31  1  0  0  0
 31 32  1  0  0  0
 32 33  1  0  0  0
 33 34  1  0  0  0
 34 35  1  0  0  0
 35 36  1  0  0  0
 36 37  1  0  0  0
 37 38  1  0  0  0
 38 39  1  0  0  0
  7  8  2  0  0  0
  8  9  1  0  0  0
  9 10  2  0  0  0
 15 11  1  0  0  0
 10  1  1  0  0  0
 25 20  1  0  0  0
 28 26  1  0  0  0
  9  4  1  0  0  0
 39 35  1  0  0  0
 18 19  1  0  0  0
M  END
> <minimizedAffinity>
-6.46471

> <CNNscore>
0.2642583549

> <CNNaffinity>
6.3456649780

> <CNN_VS>
1.6768950224

> <CNNaffinity_variance>
0.5089062452

$$$$
[H]c1c(-c2nc3c([H])c(OC([H])([H])C([H])([H])C([H])([H])N4C([H])([H])C([H])([H])C([H])([H])C4([H])[H])c(OC([H])([H])[H])c([H])c3c(N([H])C3([H])C([H])([H])C([H])([H])N(C4([H])C([H])([H])C4([H])[H])C([H])([H])C3([H])[H])c2[H])oc(C([H])([H])C([H])([H])[H])c1[H]


 39 44  0  0  0  0  0  0  0  0999 V2000
   35.7993  -16.4117   36.1962 C   0  0  0  0  0  0  0  0  0  0  0  0
   35.0110  -17.3548   35.5958 C   0  0  0  0  0  0  0  0  0  0  0  0
   35.4472  -18.6743   35.4070 C   0  0  0  0  0  0  0  0  0  0  0  0
   36.6978  -19.0082   35.8415 C   0  0  0  0  0  0  0  0  0  0  0  0
   37.1876  -20.2851   35.6904 C   0  0  0  0  0  0  0  0  0  0  0  0
   38.4391  -20.6392   36.1231 C   0  0  0  0  0  0  0  0  0  0  0  0
   39.2468  -19.6563   36.7435 C   0  0  0  0  0  0  0  0  0  0  0  0
   38.7530  -18.3856   36.8901 C   0  0  0  0  0  0  0  0  0  0  0  0
   37.4964  -18.0271   36.4571 C   0  0  0  0  0  0  0  0  0  0  0  0
   37.0178  -16.7882   36.6051 N   0  0  0  0  0  0  0  0  0  0  0  0
   34.0079  -13.3787   36.8292 C   0  0  0  0  0  0  0  0  0  0  0  0
   35.2051  -12.8317   36.4962 C   0  0  0  0  0  0  0  0  0  0  0  0
   36.0600  -13.8776   36.2082 C   0  0  0  0  0  0  0  0  0  0  0  0
   35.3211  -15.0247   36.3853 C   0  0  0  0  0  0  0  0  0  0  0  0
   34.1145  -14.6677   36.7526 O   0  0  0  0  0  0  0  0  0  0  0  0
   32.4856  -12.7600   38.7027 C   0  0  0  0  0  0  0  0  0  0  0  0
   32.7663  -12.6333   37.2204 C   0  0  0  0  0  0  0  0  0  0  0  0
   34.6146  -19.6117   34.7642 N   0  0  0  0  0  0  0  0  0  0  0  0
   34.9598  -20.3071   34.0761 H   0  0  0  0  0  0  0  0  0  0  0  0
   33.1678  -19.6697   35.0269 C   0  0  0  0  0  0  0  0  0  0  0  0
   32.5842  -20.6290   34.0088 C   0  0  0  0  0  0  0  0  0  0  0  0
   31.5098  -21.5139   34.5878 C   0  0  0  0  0  0  0  0  0  0  0  0
   31.9576  -22.2772   35.7168 N   0  0  0  0  0  0  0  0  0  0  0  0
   33.2178  -21.7980   36.1858 C   0  0  0  0  0  0  0  0  0  0  0  0
   33.0528  -20.2892   36.4321 C   0  0  0  0  0  0  0  0  0  0  0  0
   31.9472  -23.7060   35.4790 C   0  0  0  0  0  0  0  0  0  0  0  0
   30.8661  -24.2642   34.5867 C   0  0  0  0  0  0  0  0  0  0  0  0
   30.7498  -24.4215   36.0713 C   0  0  0  0  0  0  0  0  0  0  0  0
   38.8895  -21.9231   35.9531 O   0  0  0  0  0  0  0  0  0  0  0  0
   38.1522  -22.9919   36.4973 C   0  0  0  0  0  0  0  0  0  0  0  0
   40.4627  -20.1030   37.1407 O   0  0  0  0  0  0  0  0  0  0  0  0
   41.5746  -19.4231   37.5682 C   0  0  0  0  0  0  0  0  0  0  0  0
   42.7672  -19.4289   36.6598 C   0  0  0  0  0  0  0  0  0  0  0  0
   42.5622  -20.2072   35.4251 C   0  0  0  0  0  0  0  0  0  0  0  0
   42.0465  -19.6927   34.2614 N   0  0  0  0  0  0  0  0  0  0  0  0
   41.6555  -18.3853   34.0356 C   0  0  0  0  0  0  0  0  0  0  0  0
   40.2642  -18.3917   33.4014 C   0  0  0  0  0  0  0  0  0  0  0  0
   39.9951  -19.8376   33.0860 C   0  0  0  0  0  0  0  0  0  0  0  0
   41.2532  -20.5905   33.4506 C   0  0  0  0  0  0  0  0  0  0  0  0
 16 17  1  0  0  0
 17 11  1  0  0  0
 11 12  2  0  0  0
 12 13  1  0  0  0
 13 14  2  0  0  0
 14 15  1  0  0  0
 14  1  1  0  0  0
  1  2  2  0  0  0
  2  3  1  0  0  0
  3 18  1  0  0  0
 18 20  1  0  0  0
 20 21  1  0  0  0
 21 22  1  0  0  0
 22 23  1  0  0  0
 23 24  1  0  0  0
 24 25  1  0  0  0
 23 26  1  0  0  0
 26 27  1  0  0  0
 27 28  1  0  0  0
  3  4  2  0  0  0
  4  5  1  0  0  0
  5  6  2  0  0  0
  6 29  1  0  0  0
 29 30  1  0  0  0
  6  7  1  0  0  0
  7 31  1  0  0  0
 31 32  1  0  0  0
 32 33  1  0  0  0
 33 34  1  0  0  0
 34 35  1  0  0  0
 35 36  1  0  0  0
 36 37  1  0  0  0
 37 38  1  0  0  0
 38 39  1  0  0  0
  7  8  2  0  0  0
  8  9  1  0  0  0
  9 10  2  0  0  0
 15 11  1  0  0  0
 10  1  1  0  0  0
 25 20  1  0  0  0
 28 26  1  0  0  0
  9  4  1  0  0  0
 39 35  1  0  0  0
 18 19  1  0  0  0
M  END
> <minimizedAffinity>
-6.54980

> <CNNscore>
0.2286199927

> <CNNaffinity>
6.3817238808

> <CNN_VS>
1.4589896202

> <CNNaffinity_variance>
0.3659625947

$$$$
[H]c1c(-c2nc3c([H])c(OC([H])([H])C([H])([H])C([H])([H])N4C([H])([H])C([H])([H])C([H])([H])C4([H])[H])c(OC([H])([H])[H])c([H])c3c(N([H])C3([H])C([H])([H])C([H])([H])N(C4([H])C([H])([H])C4([H])[H])C([H])([H])C3([H])[H])c2[H])oc(C([H])([H])C([H])([H])[H])c1[H]


 39 44  0  0  0  0  0  0  0  0999 V2000
   34.9011  -15.5046   36.4726 C   0  0  0  0  0  0  0  0  0  0  0  0
   34.1304  -16.3822   35.7606 C   0  0  0  0  0  0  0  0  0  0  0  0
   34.6058  -17.6453   35.3788 C   0  0  0  0  0  0  0  0  0  0  0  0
   35.8771  -17.9909   35.7374 C   0  0  0  0  0  0  0  0  0  0  0  0
   36.4055  -19.2151   35.3979 C   0  0  0  0  0  0  0  0  0  0  0  0
   37.6784  -19.5805   35.7518 C   0  0  0  0  0  0  0  0  0  0  0  0
   38.4677  -18.6656   36.4889 C   0  0  0  0  0  0  0  0  0  0  0  0
   37.9353  -17.4470   36.8231 C   0  0  0  0  0  0  0  0  0  0  0  0
   36.6572  -17.0774   36.4696 C   0  0  0  0  0  0  0  0  0  0  0  0
   36.1412  -15.8899   36.8004 N   0  0  0  0  0  0  0  0  0  0  0  0
   33.0604  -12.6707   37.6514 C   0  0  0  0  0  0  0  0  0  0  0  0
   34.1648  -12.0156   37.2104 C   0  0  0  0  0  0  0  0  0  0  0  0
   35.0237  -12.9704   36.7020 C   0  0  0  0  0  0  0  0  0  0  0  0
   34.3815  -14.1764   36.8651 C   0  0  0  0  0  0  0  0  0  0  0  0
   33.2241  -13.9371   37.4318 O   0  0  0  0  0  0  0  0  0  0  0  0
   31.0033  -11.3175   37.2673 C   0  0  0  0  0  0  0  0  0  0  0  0
   31.8508  -12.0501   38.2856 C   0  0  0  0  0  0  0  0  0  0  0  0
   33.7895  -18.5129   34.6264 N   0  0  0  0  0  0  0  0  0  0  0  0
   33.2747  -18.2199   33.7747 H   0  0  0  0  0  0  0  0  0  0  0  0
   33.6041  -19.9229   35.0047 C   0  0  0  0  0  0  0  0  0  0  0  0
   32.8235  -19.9202   36.3040 C   0  0  0  0  0  0  0  0  0  0  0  0
   31.7879  -21.0140   36.3664 C   0  0  0  0  0  0  0  0  0  0  0  0
   30.8512  -20.9643   35.2811 N   0  0  0  0  0  0  0  0  0  0  0  0
   31.3014  -20.0713   34.2625 C   0  0  0  0  0  0  0  0  0  0  0  0
   32.7254  -20.5128   33.8860 C   0  0  0  0  0  0  0  0  0  0  0  0
   29.4944  -20.6954   35.7115 C   0  0  0  0  0  0  0  0  0  0  0  0
   29.0096  -21.3648   36.9738 C   0  0  0  0  0  0  0  0  0  0  0  0
   28.5757  -21.8987   35.6437 C   0  0  0  0  0  0  0  0  0  0  0  0
   38.1672  -20.8105   35.3934 O   0  0  0  0  0  0  0  0  0  0  0  0
   38.8617  -20.9504   34.1768 C   0  0  0  0  0  0  0  0  0  0  0  0
   39.7072  -19.1189   36.7952 O   0  0  0  0  0  0  0  0  0  0  0  0
   40.9453  -18.7049   36.3742 C   0  0  0  0  0  0  0  0  0  0  0  0
   42.0262  -19.7420   36.3155 C   0  0  0  0  0  0  0  0  0  0  0  0
   42.6298  -20.0373   37.6272 C   0  0  0  0  0  0  0  0  0  0  0  0
   42.3132  -19.3818   38.7913 N   0  0  0  0  0  0  0  0  0  0  0  0
   43.1081  -18.4811   39.4770 C   0  0  0  0  0  0  0  0  0  0  0  0
   43.1348  -18.8757   40.9540 C   0  0  0  0  0  0  0  0  0  0  0  0
   42.0995  -19.9597   41.0784 C   0  0  0  0  0  0  0  0  0  0  0  0
   41.4535  -20.0846   39.7184 C   0  0  0  0  0  0  0  0  0  0  0  0
 16 17  1  0  0  0
 17 11  1  0  0  0
 11 12  2  0  0  0
 12 13  1  0  0  0
 13 14  2  0  0  0
 14 15  1  0  0  0
 14  1  1  0  0  0
  1  2  2  0  0  0
  2  3  1  0  0  0
  3 18  1  0  0  0
 18 20  1  0  0  0
 20 21  1  0  0  0
 21 22  1  0  0  0
 22 23  1  0  0  0
 23 24  1  0  0  0
 24 25  1  0  0  0
 23 26  1  0  0  0
 26 27  1  0  0  0
 27 28  1  0  0  0
  3  4  2  0  0  0
  4  5  1  0  0  0
  5  6  2  0  0  0
  6 29  1  0  0  0
 29 30  1  0  0  0
  6  7  1  0  0  0
  7 31  1  0  0  0
 31 32  1  0  0  0
 32 33  1  0  0  0
 33 34  1  0  0  0
 34 35  1  0  0  0
 35 36  1  0  0  0
 36 37  1  0  0  0
 37 38  1  0  0  0
 38 39  1  0  0  0
  7  8  2  0  0  0
  8  9  1  0  0  0
  9 10  2  0  0  0
 15 11  1  0  0  0
 10  1  1  0  0  0
 25 20  1  0  0  0
 28 26  1  0  0  0
  9  4  1  0  0  0
 39 35  1  0  0  0
 18 19  1  0  0  0
M  END
> <minimizedAffinity>
-7.42781

> <CNNscore>
0.2196122557

> <CNNaffinity>
6.2578797340

> <CNN_VS>
1.3743070364

> <CNNaffinity_variance>
0.2935903966

$$$$
[H]c1c(-c2nc3c([H])c(OC([H])([H])C([H])([H])C([H])([H])N4C([H])([H])C([H])([H])C([H])([H])C4([H])[H])c(OC([H])([H])[H])c([H])c3c(N([H])C3([H])C([H])([H])C([H])([H])N(C4([H])C([H])([H])C4([H])[H])C([H])([H])C3([H])[H])c2[H])oc(C([H])([H])C([H])([H])[H])c1[H]


 39 44  0  0  0  0  0  0  0  0999 V2000
   34.9518  -15.3456   36.4729 C   0  0  0  0  0  0  0  0  0  0  0  0
   34.1358  -16.2077   35.7931 C   0  0  0  0  0  0  0  0  0  0  0  0
   34.5651  -17.4860   35.4073 C   0  0  0  0  0  0  0  0  0  0  0  0
   35.8376  -17.8628   35.7284 C   0  0  0  0  0  0  0  0  0  0  0  0
   36.3222  -19.1033   35.3828 C   0  0  0  0  0  0  0  0  0  0  0  0
   37.5955  -19.4999   35.6994 C   0  0  0  0  0  0  0  0  0  0  0  0
   38.4319  -18.6009   36.4033 C   0  0  0  0  0  0  0  0  0  0  0  0
   37.9430  -17.3658   36.7438 C   0  0  0  0  0  0  0  0  0  0  0  0
   36.6646  -16.9649   36.4277 C   0  0  0  0  0  0  0  0  0  0  0  0
   36.1911  -15.7615   36.7646 N   0  0  0  0  0  0  0  0  0  0  0  0
   34.3548  -11.8568   37.0023 C   0  0  0  0  0  0  0  0  0  0  0  0
   33.3627  -12.3457   37.7898 C   0  0  0  0  0  0  0  0  0  0  0  0
   33.4306  -13.7232   37.7152 C   0  0  0  0  0  0  0  0  0  0  0  0
   34.4805  -14.0009   36.8702 C   0  0  0  0  0  0  0  0  0  0  0  0
   34.9894  -12.8580   36.4794 O   0  0  0  0  0  0  0  0  0  0  0  0
   33.6606   -9.5021   37.4317 C   0  0  0  0  0  0  0  0  0  0  0  0
   34.6742  -10.4099   36.7678 C   0  0  0  0  0  0  0  0  0  0  0  0
   33.7025  -18.3371   34.6885 N   0  0  0  0  0  0  0  0  0  0  0  0
   33.1180  -18.0202   33.8922 H   0  0  0  0  0  0  0  0  0  0  0  0
   33.5655  -19.7632   35.0251 C   0  0  0  0  0  0  0  0  0  0  0  0
   32.7707  -19.8260   36.3143 C   0  0  0  0  0  0  0  0  0  0  0  0
   31.7760  -20.9586   36.3335 C   0  0  0  0  0  0  0  0  0  0  0  0
   30.8503  -20.9128   35.2386 N   0  0  0  0  0  0  0  0  0  0  0  0
   31.2784  -19.9754   34.2508 C   0  0  0  0  0  0  0  0  0  0  0  0
   32.7220  -20.3532   33.8797 C   0  0  0  0  0  0  0  0  0  0  0  0
   29.4797  -20.7065   35.6595 C   0  0  0  0  0  0  0  0  0  0  0  0
   29.0193  -21.3921   36.9223 C   0  0  0  0  0  0  0  0  0  0  0  0
   28.6194  -21.9523   35.5924 C   0  0  0  0  0  0  0  0  0  0  0  0
   38.0398  -20.7452   35.3362 O   0  0  0  0  0  0  0  0  0  0  0  0
   38.6892  -20.9135   34.0985 C   0  0  0  0  0  0  0  0  0  0  0  0
   39.6681  -19.0849   36.6741 O   0  0  0  0  0  0  0  0  0  0  0  0
   40.2251  -19.5213   37.8492 C   0  0  0  0  0  0  0  0  0  0  0  0
   41.7215  -19.5891   37.9092 C   0  0  0  0  0  0  0  0  0  0  0  0
   42.3901  -18.5670   37.0843 C   0  0  0  0  0  0  0  0  0  0  0  0
   42.7170  -18.7313   35.7610 N   0  0  0  0  0  0  0  0  0  0  0  0
   42.3411  -17.9172   34.7078 C   0  0  0  0  0  0  0  0  0  0  0  0
   41.7893  -18.7935   33.5829 C   0  0  0  0  0  0  0  0  0  0  0  0
   42.0928  -20.2026   34.0127 C   0  0  0  0  0  0  0  0  0  0  0  0
   42.8805  -20.0918   35.2972 C   0  0  0  0  0  0  0  0  0  0  0  0
 16 17  1  0  0  0
 17 11  1  0  0  0
 11 12  2  0  0  0
 12 13  1  0  0  0
 13 14  2  0  0  0
 14 15  1  0  0  0
 14  1  1  0  0  0
  1  2  2  0  0  0
  2  3  1  0  0  0
  3 18  1  0  0  0
 18 20  1  0  0  0
 20 21  1  0  0  0
 21 22  1  0  0  0
 22 23  1  0  0  0
 23 24  1  0  0  0
 24 25  1  0  0  0
 23 26  1  0  0  0
 26 27  1  0  0  0
 27 28  1  0  0  0
  3  4  2  0  0  0
  4  5  1  0  0  0
  5  6  2  0  0  0
  6 29  1  0  0  0
 29 30  1  0  0  0
  6  7  1  0  0  0
  7 31  1  0  0  0
 31 32  1  0  0  0
 32 33  1  0  0  0
 33 34  1  0  0  0
 34 35  1  0  0  0
 35 36  1  0  0  0
 36 37  1  0  0  0
 37 38  1  0  0  0
 38 39  1  0  0  0
  7  8  2  0  0  0
  8  9  1  0  0  0
  9 10  2  0  0  0
 15 11  1  0  0  0
 10  1  1  0  0  0
 25 20  1  0  0  0
 28 26  1  0  0  0
  9  4  1  0  0  0
 39 35  1  0  0  0
 18 19  1  0  0  0
M  END
> <minimizedAffinity>
-7.05020

> <CNNscore>
0.2164784819

> <CNNaffinity>
6.2636766434

> <CNN_VS>
1.3559511900

> <CNNaffinity_variance>
0.3700723946

$$$$
[H]c1c(-c2nc3c([H])c(OC([H])([H])C([H])([H])C([H])([H])N4C([H])([H])C([H])([H])C([H])([H])C4([H])[H])c(OC([H])([H])[H])c([H])c3c(N([H])C3([H])C([H])([H])C([H])([H])N(C4([H])C([H])([H])C4([H])[H])C([H])([H])C3([H])[H])c2[H])oc(C([H])([H])C([H])([H])[H])c1[H]


 39 44  0  0  0  0  0  0  0  0999 V2000
   36.4218  -17.1450   37.0893 C   0  0  0  0  0  0  0  0  0  0  0  0
   37.6376  -17.7168   36.8325 C   0  0  0  0  0  0  0  0  0  0  0  0
   37.8038  -19.1080   36.7689 C   0  0  0  0  0  0  0  0  0  0  0  0
   36.7088  -19.8980   36.9718 C   0  0  0  0  0  0  0  0  0  0  0  0
   36.8002  -21.2699   36.9209 C   0  0  0  0  0  0  0  0  0  0  0  0
   35.7114  -22.0786   37.1190 C   0  0  0  0  0  0  0  0  0  0  0  0
   34.4576  -21.4772   37.3834 C   0  0  0  0  0  0  0  0  0  0  0  0
   34.3736  -20.1095   37.4338 C   0  0  0  0  0  0  0  0  0  0  0  0
   35.4653  -19.2948   37.2347 C   0  0  0  0  0  0  0  0  0  0  0  0
   35.3781  -17.9621   37.2813 N   0  0  0  0  0  0  0  0  0  0  0  0
   35.3347  -13.7425   37.3128 C   0  0  0  0  0  0  0  0  0  0  0  0
   36.6665  -13.5131   37.1821 C   0  0  0  0  0  0  0  0  0  0  0  0
   37.2797  -14.7463   37.0784 C   0  0  0  0  0  0  0  0  0  0  0  0
   36.2673  -15.6752   37.1531 C   0  0  0  0  0  0  0  0  0  0  0  0
   35.1388  -15.0230   37.2914 O   0  0  0  0  0  0  0  0  0  0  0  0
   32.9494  -13.1739   36.8684 C   0  0  0  0  0  0  0  0  0  0  0  0
   34.2622  -12.7036   37.4578 C   0  0  0  0  0  0  0  0  0  0  0  0
   39.0768  -19.6600   36.5242 N   0  0  0  0  0  0  0  0  0  0  0  0
   39.5732  -20.2749   37.1963 H   0  0  0  0  0  0  0  0  0  0  0  0
   39.8074  -19.3959   35.2743 C   0  0  0  0  0  0  0  0  0  0  0  0
   41.1936  -19.9819   35.4547 C   0  0  0  0  0  0  0  0  0  0  0  0
   41.7110  -20.6543   34.2086 C   0  0  0  0  0  0  0  0  0  0  0  0
   40.8451  -21.6924   33.7288 N   0  0  0  0  0  0  0  0  0  0  0  0
   39.5768  -21.6376   34.3814 C   0  0  0  0  0  0  0  0  0  0  0  0
   39.0503  -20.2038   34.2039 C   0  0  0  0  0  0  0  0  0  0  0  0
   41.4510  -23.0073   33.7768 C   0  0  0  0  0  0  0  0  0  0  0  0
   42.8763  -23.1444   33.3013 C   0  0  0  0  0  0  0  0  0  0  0  0
   41.7574  -23.5957   32.4143 C   0  0  0  0  0  0  0  0  0  0  0  0
   35.8455  -23.4419   37.0599 O   0  0  0  0  0  0  0  0  0  0  0  0
   36.8318  -24.0737   37.8410 C   0  0  0  0  0  0  0  0  0  0  0  0
   33.4430  -22.3575   37.5598 O   0  0  0  0  0  0  0  0  0  0  0  0
   32.4053  -22.7104   36.7351 C   0  0  0  0  0  0  0  0  0  0  0  0
   32.3876  -24.1214   36.2289 C   0  0  0  0  0  0  0  0  0  0  0  0
   31.5929  -25.0369   37.0669 C   0  0  0  0  0  0  0  0  0  0  0  0
   31.9515  -25.4405   38.3292 N   0  0  0  0  0  0  0  0  0  0  0  0
   31.4289  -24.9821   39.5250 C   0  0  0  0  0  0  0  0  0  0  0  0
   32.5842  -24.6259   40.4611 C   0  0  0  0  0  0  0  0  0  0  0  0
   33.8141  -25.1347   39.7604 C   0  0  0  0  0  0  0  0  0  0  0  0
   33.3292  -25.8404   38.5156 C   0  0  0  0  0  0  0  0  0  0  0  0
 16 17  1  0  0  0
 17 11  1  0  0  0
 11 12  2  0  0  0
 12 13  1  0  0  0
 13 14  2  0  0  0
 14 15  1  0  0  0
 14  1  1  0  0  0
  1  2  2  0  0  0
  2  3  1  0  0  0
  3 18  1  0  0  0
 18 20  1  0  0  0
 20 21  1  0  0  0
 21 22  1  0  0  0
 22 23  1  0  0  0
 23 24  1  0  0  0
 24 25  1  0  0  0
 23 26  1  0  0  0
 26 27  1  0  0  0
 27 28  1  0  0  0
  3  4  2  0  0  0
  4  5  1  0  0  0
  5  6  2  0  0  0
  6 29  1  0  0  0
 29 30  1  0  0  0
  6  7  1  0  0  0
  7 31  1  0  0  0
 31 32  1  0  0  0
 32 33  1  0  0  0
 33 34  1  0  0  0
 34 35  1  0  0  0
 35 36  1  0  0  0
 36 37  1  0  0  0
 37 38  1  0  0  0
 38 39  1  0  0  0
  7  8  2  0  0  0
  8  9  1  0  0  0
  9 10  2  0  0  0
 15 11  1  0  0  0
 10  1  1  0  0  0
 25 20  1  0  0  0
 28 26  1  0  0  0
  9  4  1  0  0  0
 39 35  1  0  0  0
 18 19  1  0  0  0
M  END
> <minimizedAffinity>
-5.10948

> <CNNscore>
0.2128436863

> <CNNaffinity>
6.1097002029

> <CNN_VS>
1.3004111052

> <CNNaffinity_variance>
0.0522133000

$$$$
[H]c1c(-c2nc3c([H])c(OC([H])([H])C([H])([H])C([H])([H])N4C([H])([H])C([H])([H])C([H])([H])C4([H])[H])c(OC([H])([H])[H])c([H])c3c(N([H])C3([H])C([H])([H])C([H])([H])N(C4([H])C([H])([H])C4([H])[H])C([H])([H])C3([H])[H])c2[H])oc(C([H])([H])C([H])([H])[H])c1[H]


 39 44  0  0  0  0  0  0  0  0999 V2000
   36.5635  -17.5574   36.8818 C   0  0  0  0  0  0  0  0  0  0  0  0
   35.5937  -18.4983   36.6685 C   0  0  0  0  0  0  0  0  0  0  0  0
   35.8993  -19.8605   36.5342 C   0  0  0  0  0  0  0  0  0  0  0  0
   37.2082  -20.2392   36.6217 C   0  0  0  0  0  0  0  0  0  0  0  0
   37.5779  -21.5590   36.5018 C   0  0  0  0  0  0  0  0  0  0  0  0
   38.8863  -21.9581   36.5900 C   0  0  0  0  0  0  0  0  0  0  0  0
   39.8823  -20.9770   36.8114 C   0  0  0  0  0  0  0  0  0  0  0  0
   39.5071  -19.6634   36.9290 C   0  0  0  0  0  0  0  0  0  0  0  0
   38.1939  -19.2597   36.8414 C   0  0  0  0  0  0  0  0  0  0  0  0
   37.8325  -17.9787   36.9601 N   0  0  0  0  0  0  0  0  0  0  0  0
   35.0890  -14.2968   36.9350 C   0  0  0  0  0  0  0  0  0  0  0  0
   36.3012  -13.9707   37.4523 C   0  0  0  0  0  0  0  0  0  0  0  0
   37.0403  -15.1359   37.5132 C   0  0  0  0  0  0  0  0  0  0  0  0
   36.2208  -16.1251   37.0200 C   0  0  0  0  0  0  0  0  0  0  0  0
   35.0792  -15.5698   36.6938 O   0  0  0  0  0  0  0  0  0  0  0  0
   34.2366  -11.9724   37.2193 C   0  0  0  0  0  0  0  0  0  0  0  0
   33.9475  -13.3574   36.6805 C   0  0  0  0  0  0  0  0  0  0  0  0
   34.8747  -20.7970   36.2929 N   0  0  0  0  0  0  0  0  0  0  0  0
   34.9060  -21.4953   35.5263 H   0  0  0  0  0  0  0  0  0  0  0  0
   33.6629  -20.8499   37.1263 C   0  0  0  0  0  0  0  0  0  0  0  0
   32.8371  -22.0117   36.6107 C   0  0  0  0  0  0  0  0  0  0  0  0
   32.1812  -22.7991   37.7163 C   0  0  0  0  0  0  0  0  0  0  0  0
   33.1174  -23.3069   38.6772 N   0  0  0  0  0  0  0  0  0  0  0  0
   34.3991  -22.7021   38.5058 C   0  0  0  0  0  0  0  0  0  0  0  0
   34.1776  -21.1808   38.5395 C   0  0  0  0  0  0  0  0  0  0  0  0
   33.1732  -24.7540   38.7088 C   0  0  0  0  0  0  0  0  0  0  0  0
   31.8734  -25.5065   38.8533 C   0  0  0  0  0  0  0  0  0  0  0  0
   32.7743  -25.3579   40.0402 C   0  0  0  0  0  0  0  0  0  0  0  0
   39.2124  -23.2840   36.4646 O   0  0  0  0  0  0  0  0  0  0  0  0
   38.6934  -24.0243   35.3855 C   0  0  0  0  0  0  0  0  0  0  0  0
   41.1423  -21.4690   36.8885 O   0  0  0  0  0  0  0  0  0  0  0  0
   41.8544  -22.2570   36.0204 C   0  0  0  0  0  0  0  0  0  0  0  0
   42.8223  -21.5637   35.1095 C   0  0  0  0  0  0  0  0  0  0  0  0
   42.5140  -20.1379   34.8991 C   0  0  0  0  0  0  0  0  0  0  0  0
   41.7246  -19.6573   33.8839 N   0  0  0  0  0  0  0  0  0  0  0  0
   41.2259  -18.3731   33.7597 C   0  0  0  0  0  0  0  0  0  0  0  0
   39.7301  -18.4550   33.4536 C   0  0  0  0  0  0  0  0  0  0  0  0
   39.4721  -19.9146   33.1976 C   0  0  0  0  0  0  0  0  0  0  0  0
   40.8171  -20.5994   33.2661 C   0  0  0  0  0  0  0  0  0  0  0  0
 16 17  1  0  0  0
 17 11  1  0  0  0
 11 12  2  0  0  0
 12 13  1  0  0  0
 13 14  2  0  0  0
 14 15  1  0  0  0
 14  1  1  0  0  0
  1  2  2  0  0  0
  2  3  1  0  0  0
  3 18  1  0  0  0
 18 20  1  0  0  0
 20 21  1  0  0  0
 21 22  1  0  0  0
 22 23  1  0  0  0
 23 24  1  0  0  0
 24 25  1  0  0  0
 23 26  1  0  0  0
 26 27  1  0  0  0
 27 28  1  0  0  0
  3  4  2  0  0  0
  4  5  1  0  0  0
  5  6  2  0  0  0
  6 29  1  0  0  0
 29 30  1  0  0  0
  6  7  1  0  0  0
  7 31  1  0  0  0
 31 32  1  0  0  0
 32 33  1  0  0  0
 33 34  1  0  0  0
 34 35  1  0  0  0
 35 36  1  0  0  0
 36 37  1  0  0  0
 37 38  1  0  0  0
 38 39  1  0  0  0
  7  8  2  0  0  0
  8  9  1  0  0  0
  9 10  2  0  0  0
 15 11  1  0  0  0
 10  1  1  0  0  0
 25 20  1  0  0  0
 28 26  1  0  0  0
  9  4  1  0  0  0
 39 35  1  0  0  0
 18 19  1  0  0  0
M  END
> <minimizedAffinity>
-5.54910

> <CNNscore>
0.1959470809

> <CNNaffinity>
6.1426215172

> <CNN_VS>
1.2036287785

> <CNNaffinity_variance>
0.1688270867

$$$$
[H]c1c(OC([H])([H])C([H])([H])C([H])([H])N2C([H])([H])C([H])([H])C([H])([H])C2([H])[H])c(OC([H])([H])[H])c([H])c2c(N([H])C3([H])C([H])([H])C([H])([H])N(C([H])(C([H])([H])[H])C([H])([H])[H])C([H])([H])C3([H])[H])nc(N3C([H])([H])C([H])([H])S(=O)(=O)C([H])([H])C3([H])[H])nc12


 40 44  0  0  0  0  0  0  0  0999 V2000
   36.1599  -13.9928   36.6801 C   0  0  0  0  0  0  0  0  0  0  0  0
   36.6184  -15.2702   36.4655 C   0  0  0  0  0  0  0  0  0  0  0  0
   35.7812  -16.3248   36.2692 C   0  0  0  0  0  0  0  0  0  0  0  0
   36.2573  -17.5933   36.0295 C   0  0  0  0  0  0  0  0  0  0  0  0
   35.3212  -18.5671   35.8221 N   0  0  0  0  0  0  0  0  0  0  0  0
   34.0029  -18.3324   35.8436 C   0  0  0  0  0  0  0  0  0  0  0  0
   33.5609  -17.0621   36.0835 N   0  0  0  0  0  0  0  0  0  0  0  0
   34.4125  -16.0489   36.2963 C   0  0  0  0  0  0  0  0  0  0  0  0
   33.9177  -14.7847   36.5080 C   0  0  0  0  0  0  0  0  0  0  0  0
   34.7860  -13.7109   36.7059 C   0  0  0  0  0  0  0  0  0  0  0  0
   32.9812  -19.2975   35.6855 N   0  0  0  0  0  0  0  0  0  0  0  0
   33.2587  -20.6723   35.9777 C   0  0  0  0  0  0  0  0  0  0  0  0
   32.1551  -21.3715   36.7445 C   0  0  0  0  0  0  0  0  0  0  0  0
   30.6677  -21.2951   35.7710 S   0  0  0  0  0  0  0  0  0  0  0  0
   30.3497  -22.5778   35.0806 O   0  0  0  0  0  0  0  0  0  0  0  0
   29.5094  -20.8375   36.6341 O   0  0  0  0  0  0  0  0  0  0  0  0
   30.9714  -20.0499   34.5195 C   0  0  0  0  0  0  0  0  0  0  0  0
   31.7053  -18.8883   35.1750 C   0  0  0  0  0  0  0  0  0  0  0  0
   38.3083  -13.2442   37.4959 C   0  0  0  0  0  0  0  0  0  0  0  0
   37.0684  -12.9710   36.8741 O   0  0  0  0  0  0  0  0  0  0  0  0
   37.6259  -17.8837   36.0449 N   0  0  0  0  0  0  0  0  0  0  0  0
   38.1773  -17.3471   36.8227 H   0  0  0  0  0  0  0  0  0  0  0  0
   38.4162  -18.7402   35.2767 C   0  0  0  0  0  0  0  0  0  0  0  0
   38.3892  -20.2252   35.4904 C   0  0  0  0  0  0  0  0  0  0  0  0
   39.3301  -20.8483   34.4265 C   0  0  0  0  0  0  0  0  0  0  0  0
   40.2044  -19.8584   33.9073 N   0  0  0  0  0  0  0  0  0  0  0  0
   39.6446  -18.7679   33.1951 C   0  0  0  0  0  0  0  0  0  0  0  0
   38.2514  -18.4845   33.7808 C   0  0  0  0  0  0  0  0  0  0  0  0
   41.5733  -20.0519   33.8848 C   0  0  0  0  0  0  0  0  0  0  0  0
   42.3045  -18.7254   34.0139 C   0  0  0  0  0  0  0  0  0  0  0  0
   42.1707  -20.9963   34.8984 C   0  0  0  0  0  0  0  0  0  0  0  0
   34.3549  -12.5224   36.8995 O   0  0  0  0  0  0  0  0  0  0  0  0
   33.9156  -11.3321   37.1885 C   0  0  0  0  0  0  0  0  0  0  0  0
   32.7162  -11.4177   38.1280 C   0  0  0  0  0  0  0  0  0  0  0  0
   31.4382  -10.9587   37.5461 C   0  0  0  0  0  0  0  0  0  0  0  0
   30.3339  -11.8447   37.5277 N   0  0  0  0  0  0  0  0  0  0  0  0
   30.0917  -12.5184   38.7543 C   0  0  0  0  0  0  0  0  0  0  0  0
   29.3269  -11.5771   39.6717 C   0  0  0  0  0  0  0  0  0  0  0  0
   28.9251  -10.4392   38.7675 C   0  0  0  0  0  0  0  0  0  0  0  0
   29.1273  -10.9992   37.3800 C   0  0  0  0  0  0  0  0  0  0  0  0
 19 20  1  0  0  0
 20  1  1  0  0  0
  1  2  2  0  0  0
  2  3  1  0  0  0
  3  4  2  0  0  0
  4 21  1  0  0  0
 21 23  1  0  0  0
 23 24  1  0  0  0
 24 25  1  0  0  0
 25 26  1  0  0  0
 26 27  1  0  0  0
 27 28  1  0  0  0
 26 29  1  0  0  0
 29 30  1  0  0  0
 29 31  1  0  0  0
  4  5  1  0  0  0
  5  6  2  0  0  0
  6  7  1  0  0  0
  7  8  2  0  0  0
  8  9  1  0  0  0
  9 10  2  0  0  0
 10 32  1  0  0  0
 32 33  1  0  0  0
 33 34  1  0  0  0
 34 35  1  0  0  0
 35 36  1  0  0  0
 36 37  1  0  0  0
 37 38  1  0  0  0
 38 39  1  0  0  0
 39 40  1  0  0  0
  6 11  1  0  0  0
 11 12  1  0  0  0
 12 13  1  0  0  0
 13 14  1  0  0  0
 14 15  2  0  0  0
 14 16  2  0  0  0
 14 17  1  0  0  0
 17 18  1  0  0  0
 10  1  1  0  0  0
 40 36  1  0  0  0
 18 11  1  0  0  0
  8  3  1  0  0  0
 28 23  1  0  0  0
 21 22  1  0  0  0
M  END
> <minimizedAffinity>
-8.06347

> <CNNscore>
0.7127755880

> <CNNaffinity>
7.4025893211

> <CNN_VS>
5.2763848305

> <CNNaffinity_variance>
0.0378711931

$$$$
[H]c1c(OC([H])([H])C([H])([H])C([H])([H])N2C([H])([H])C([H])([H])C([H])([H])C2([H])[H])c(OC([H])([H])[H])c([H])c2c(N([H])C3([H])C([H])([H])C([H])([H])N(C([H])(C([H])([H])[H])C([H])([H])[H])C([H])([H])C3([H])[H])nc(N3C([H])([H])C([H])([H])S(=O)(=O)C([H])([H])C3([H])[H])nc12


 40 44  0  0  0  0  0  0  0  0999 V2000
   36.2479  -14.2114   36.7967 C   0  0  0  0  0  0  0  0  0  0  0  0
   36.8258  -15.4462   36.6253 C   0  0  0  0  0  0  0  0  0  0  0  0
   36.0976  -16.5641   36.3578 C   0  0  0  0  0  0  0  0  0  0  0  0
   36.6945  -17.7885   36.1629 C   0  0  0  0  0  0  0  0  0  0  0  0
   35.8626  -18.8339   35.8756 N   0  0  0  0  0  0  0  0  0  0  0  0
   34.5327  -18.7070   35.7807 C   0  0  0  0  0  0  0  0  0  0  0  0
   33.9695  -17.4781   35.9788 N   0  0  0  0  0  0  0  0  0  0  0  0
   34.7140  -16.4004   36.2640 C   0  0  0  0  0  0  0  0  0  0  0  0
   34.1013  -15.1817   36.4294 C   0  0  0  0  0  0  0  0  0  0  0  0
   34.8587  -14.0421   36.7012 C   0  0  0  0  0  0  0  0  0  0  0  0
   33.6107  -19.7510   35.5348 N   0  0  0  0  0  0  0  0  0  0  0  0
   33.6351  -20.9219   36.3599 C   0  0  0  0  0  0  0  0  0  0  0  0
   32.2616  -21.4150   36.7664 C   0  0  0  0  0  0  0  0  0  0  0  0
   31.3462  -21.7908   35.2877 S   0  0  0  0  0  0  0  0  0  0  0  0
   31.2631  -23.2518   35.0023 O   0  0  0  0  0  0  0  0  0  0  0  0
   29.9662  -21.1697   35.3637 O   0  0  0  0  0  0  0  0  0  0  0  0
   32.2474  -21.0127   33.9492 C   0  0  0  0  0  0  0  0  0  0  0  0
   32.7111  -19.6424   34.4237 C   0  0  0  0  0  0  0  0  0  0  0  0
   38.3056  -13.3106   37.6890 C   0  0  0  0  0  0  0  0  0  0  0  0
   37.0497  -13.1203   37.0683 O   0  0  0  0  0  0  0  0  0  0  0  0
   38.0756  -17.9669   36.2991 N   0  0  0  0  0  0  0  0  0  0  0  0
   38.5642  -17.1721   36.8703 H   0  0  0  0  0  0  0  0  0  0  0  0
   38.9429  -18.9717   35.8676 C   0  0  0  0  0  0  0  0  0  0  0  0
   39.2598  -19.1544   34.4123 C   0  0  0  0  0  0  0  0  0  0  0  0
   40.2942  -20.3063   34.3200 C   0  0  0  0  0  0  0  0  0  0  0  0
   40.2835  -21.0700   35.5160 N   0  0  0  0  0  0  0  0  0  0  0  0
   40.6632  -20.4367   36.7263 C   0  0  0  0  0  0  0  0  0  0  0  0
   40.2648  -18.9547   36.6308 C   0  0  0  0  0  0  0  0  0  0  0  0
   40.1351  -22.4445   35.4875 C   0  0  0  0  0  0  0  0  0  0  0  0
   39.5314  -22.9458   36.7895 C   0  0  0  0  0  0  0  0  0  0  0  0
   39.3351  -23.0460   34.3587 C   0  0  0  0  0  0  0  0  0  0  0  0
   34.3170  -12.8935   36.8543 O   0  0  0  0  0  0  0  0  0  0  0  0
   33.7458  -11.7501   37.0982 C   0  0  0  0  0  0  0  0  0  0  0  0
   32.5607  -11.9344   38.0418 C   0  0  0  0  0  0  0  0  0  0  0  0
   31.3135  -11.2719   37.6083 C   0  0  0  0  0  0  0  0  0  0  0  0
   30.1013  -12.0032   37.6363 N   0  0  0  0  0  0  0  0  0  0  0  0
   29.7838  -12.5798   38.8948 C   0  0  0  0  0  0  0  0  0  0  0  0
   29.1594  -11.5029   39.7682 C   0  0  0  0  0  0  0  0  0  0  0  0
   28.9034  -10.3657   38.8114 C   0  0  0  0  0  0  0  0  0  0  0  0
   29.0161  -11.0129   37.4519 C   0  0  0  0  0  0  0  0  0  0  0  0
 19 20  1  0  0  0
 20  1  1  0  0  0
  1  2  2  0  0  0
  2  3  1  0  0  0
  3  4  2  0  0  0
  4 21  1  0  0  0
 21 23  1  0  0  0
 23 24  1  0  0  0
 24 25  1  0  0  0
 25 26  1  0  0  0
 26 27  1  0  0  0
 27 28  1  0  0  0
 26 29  1  0  0  0
 29 30  1  0  0  0
 29 31  1  0  0  0
  4  5  1  0  0  0
  5  6  2  0  0  0
  6  7  1  0  0  0
  7  8  2  0  0  0
  8  9  1  0  0  0
  9 10  2  0  0  0
 10 32  1  0  0  0
 32 33  1  0  0  0
 33 34  1  0  0  0
 34 35  1  0  0  0
 35 36  1  0  0  0
 36 37  1  0  0  0
 37 38  1  0  0  0
 38 39  1  0  0  0
 39 40  1  0  0  0
  6 11  1  0  0  0
 11 12  1  0  0  0
 12 13  1  0  0  0
 13 14  1  0  0  0
 14 15  2  0  0  0
 14 16  2  0  0  0
 14 17  1  0  0  0
 17 18  1  0  0  0
 10  1  1  0  0  0
 40 36  1  0  0  0
 18 11  1  0  0  0
  8  3  1  0  0  0
 28 23  1  0  0  0
 21 22  1  0  0  0
M  END
> <minimizedAffinity>
-7.83404

> <CNNscore>
0.4707391560

> <CNNaffinity>
6.9060606956

> <CNN_VS>
3.2509531975

> <CNNaffinity_variance>
0.0842115432

$$$$
[H]c1c(OC([H])([H])C([H])([H])C([H])([H])N2C([H])([H])C([H])([H])C([H])([H])C2([H])[H])c(OC([H])([H])[H])c([H])c2c(N([H])C3([H])C([H])([H])C([H])([H])N(C([H])(C([H])([H])[H])C([H])([H])[H])C([H])([H])C3([H])[H])nc(N3C([H])([H])C([H])([H])S(=O)(=O)C([H])([H])C3([H])[H])nc12


 40 44  0  0  0  0  0  0  0  0999 V2000
   36.1963  -14.3931   36.5002 C   0  0  0  0  0  0  0  0  0  0  0  0
   36.7911  -15.6015   36.2283 C   0  0  0  0  0  0  0  0  0  0  0  0
   36.0750  -16.7420   36.0334 C   0  0  0  0  0  0  0  0  0  0  0  0
   36.6851  -17.9390   35.7360 C   0  0  0  0  0  0  0  0  0  0  0  0
   35.8611  -19.0107   35.5365 N   0  0  0  0  0  0  0  0  0  0  0  0
   34.5266  -18.9337   35.6180 C   0  0  0  0  0  0  0  0  0  0  0  0
   33.9501  -17.7311   35.9143 N   0  0  0  0  0  0  0  0  0  0  0  0
   34.6860  -16.6303   36.1238 C   0  0  0  0  0  0  0  0  0  0  0  0
   34.0566  -15.4392   36.3938 C   0  0  0  0  0  0  0  0  0  0  0  0
   34.8014  -14.2760   36.5897 C   0  0  0  0  0  0  0  0  0  0  0  0
   33.6186  -20.0083   35.4713 N   0  0  0  0  0  0  0  0  0  0  0  0
   33.6670  -21.1030   36.3942 C   0  0  0  0  0  0  0  0  0  0  0  0
   32.3041  -21.5788   36.8538 C   0  0  0  0  0  0  0  0  0  0  0  0
   31.3834  -22.0943   35.4211 S   0  0  0  0  0  0  0  0  0  0  0  0
   31.3204  -23.5755   35.2638 O   0  0  0  0  0  0  0  0  0  0  0  0
   29.9948  -21.4889   35.4553 O   0  0  0  0  0  0  0  0  0  0  0  0
   32.2627  -21.4220   34.0126 C   0  0  0  0  0  0  0  0  0  0  0  0
   32.7092  -20.0093   34.3628 C   0  0  0  0  0  0  0  0  0  0  0  0
   38.0547  -13.3222   37.6143 C   0  0  0  0  0  0  0  0  0  0  0  0
   36.9868  -13.2765   36.6890 O   0  0  0  0  0  0  0  0  0  0  0  0
   38.0777  -18.0661   35.6877 N   0  0  0  0  0  0  0  0  0  0  0  0
   38.5632  -17.3141   35.0589 H   0  0  0  0  0  0  0  0  0  0  0  0
   38.9651  -18.9504   36.3033 C   0  0  0  0  0  0  0  0  0  0  0  0
   38.5104  -19.8770   37.3925 C   0  0  0  0  0  0  0  0  0  0  0  0
   39.7355  -20.7437   37.7841 C   0  0  0  0  0  0  0  0  0  0  0  0
   40.9328  -20.1299   37.3330 N   0  0  0  0  0  0  0  0  0  0  0  0
   41.1264  -19.9691   35.9378 C   0  0  0  0  0  0  0  0  0  0  0  0
   39.7465  -19.7787   35.2868 C   0  0  0  0  0  0  0  0  0  0  0  0
   41.9892  -19.8999   38.1951 C   0  0  0  0  0  0  0  0  0  0  0  0
   42.6817  -18.5895   37.8571 C   0  0  0  0  0  0  0  0  0  0  0  0
   41.7036  -19.8897   39.6764 C   0  0  0  0  0  0  0  0  0  0  0  0
   34.2432  -13.1519   36.8369 O   0  0  0  0  0  0  0  0  0  0  0  0
   33.6007  -12.0388   37.0401 C   0  0  0  0  0  0  0  0  0  0  0  0
   32.5047  -12.2362   38.0834 C   0  0  0  0  0  0  0  0  0  0  0  0
   31.2888  -11.4256   37.8670 C   0  0  0  0  0  0  0  0  0  0  0  0
   30.0347  -12.0772   37.7803 N   0  0  0  0  0  0  0  0  0  0  0  0
   29.5618  -12.6216   39.0039 C   0  0  0  0  0  0  0  0  0  0  0  0
   28.9279  -11.4995   39.8110 C   0  0  0  0  0  0  0  0  0  0  0  0
   28.8385  -10.3564   38.8315 C   0  0  0  0  0  0  0  0  0  0  0  0
   29.0384  -11.0208   37.4906 C   0  0  0  0  0  0  0  0  0  0  0  0
 19 20  1  0  0  0
 20  1  1  0  0  0
  1  2  2  0  0  0
  2  3  1  0  0  0
  3  4  2  0  0  0
  4 21  1  0  0  0
 21 23  1  0  0  0
 23 24  1  0  0  0
 24 25  1  0  0  0
 25 26  1  0  0  0
 26 27  1  0  0  0
 27 28  1  0  0  0
 26 29  1  0  0  0
 29 30  1  0  0  0
 29 31  1  0  0  0
  4  5  1  0  0  0
  5  6  2  0  0  0
  6  7  1  0  0  0
  7  8  2  0  0  0
  8  9  1  0  0  0
  9 10  2  0  0  0
 10 32  1  0  0  0
 32 33  1  0  0  0
 33 34  1  0  0  0
 34 35  1  0  0  0
 35 36  1  0  0  0
 36 37  1  0  0  0
 37 38  1  0  0  0
 38 39  1  0  0  0
 39 40  1  0  0  0
  6 11  1  0  0  0
 11 12  1  0  0  0
 12 13  1  0  0  0
 13 14  1  0  0  0
 14 15  2  0  0  0
 14 16  2  0  0  0
 14 17  1  0  0  0
 17 18  1  0  0  0
 10  1  1  0  0  0
 40 36  1  0  0  0
 18 11  1  0  0  0
  8  3  1  0  0  0
 28 23  1  0  0  0
 21 22  1  0  0  0
M  END
> <minimizedAffinity>
-7.64019

> <CNNscore>
0.4504574835

> <CNNaffinity>
6.7842760086

> <CNN_VS>
3.0560278893

> <CNNaffinity_variance>
0.1241267323

$$$$
[H]c1c(OC([H])([H])C([H])([H])C([H])([H])N2C([H])([H])C([H])([H])C([H])([H])C2([H])[H])c(OC([H])([H])[H])c([H])c2c(N([H])C3([H])C([H])([H])C([H])([H])N(C([H])(C([H])([H])[H])C([H])([H])[H])C([H])([H])C3([H])[H])nc(N3C([H])([H])C([H])([H])S(=O)(=O)C([H])([H])C3([H])[H])nc12


 40 44  0  0  0  0  0  0  0  0999 V2000
   32.4540  -21.2921   35.1830 C   0  0  0  0  0  0  0  0  0  0  0  0
   33.7383  -20.8068   35.2382 C   0  0  0  0  0  0  0  0  0  0  0  0
   34.0158  -19.4982   35.4877 C   0  0  0  0  0  0  0  0  0  0  0  0
   35.3086  -19.0336   35.5656 C   0  0  0  0  0  0  0  0  0  0  0  0
   35.4636  -17.7053   35.8465 N   0  0  0  0  0  0  0  0  0  0  0  0
   34.4329  -16.8728   36.0418 C   0  0  0  0  0  0  0  0  0  0  0  0
   33.1607  -17.3640   35.9586 N   0  0  0  0  0  0  0  0  0  0  0  0
   32.9210  -18.6549   35.6879 C   0  0  0  0  0  0  0  0  0  0  0  0
   31.6235  -19.1046   35.6401 C   0  0  0  0  0  0  0  0  0  0  0  0
   31.3515  -20.4490   35.3856 C   0  0  0  0  0  0  0  0  0  0  0  0
   34.5185  -15.4826   36.2878 N   0  0  0  0  0  0  0  0  0  0  0  0
   33.8172  -14.5711   35.4336 C   0  0  0  0  0  0  0  0  0  0  0  0
   33.1184  -13.4498   36.1747 C   0  0  0  0  0  0  0  0  0  0  0  0
   34.3449  -12.5352   37.0830 S   0  0  0  0  0  0  0  0  0  0  0  0
   34.7104  -11.2410   36.4391 O   0  0  0  0  0  0  0  0  0  0  0  0
   33.8789  -12.3233   38.5092 O   0  0  0  0  0  0  0  0  0  0  0  0
   35.8034  -13.5750   37.1094 C   0  0  0  0  0  0  0  0  0  0  0  0
   35.3575  -15.0106   37.3503 C   0  0  0  0  0  0  0  0  0  0  0  0
   32.4734  -23.5872   35.9406 C   0  0  0  0  0  0  0  0  0  0  0  0
   32.2473  -22.6326   34.9227 O   0  0  0  0  0  0  0  0  0  0  0  0
   36.4079  -19.8645   35.3225 N   0  0  0  0  0  0  0  0  0  0  0  0
   36.1801  -20.9299   35.4208 H   0  0  0  0  0  0  0  0  0  0  0  0
   37.7284  -19.5973   34.9576 C   0  0  0  0  0  0  0  0  0  0  0  0
   38.0499  -18.7912   33.7335 C   0  0  0  0  0  0  0  0  0  0  0  0
   39.5933  -18.6458   33.6851 C   0  0  0  0  0  0  0  0  0  0  0  0
   40.2028  -19.6264   34.5101 N   0  0  0  0  0  0  0  0  0  0  0  0
   39.9523  -19.5875   35.9049 C   0  0  0  0  0  0  0  0  0  0  0  0
   38.5382  -19.0220   36.1168 C   0  0  0  0  0  0  0  0  0  0  0  0
   41.1940  -20.4580   34.0222 C   0  0  0  0  0  0  0  0  0  0  0  0
   42.4763  -20.2900   34.8211 C   0  0  0  0  0  0  0  0  0  0  0  0
   40.9020  -21.9360   33.9440 C   0  0  0  0  0  0  0  0  0  0  0  0
   30.1545  -20.8977   35.3409 O   0  0  0  0  0  0  0  0  0  0  0  0
   28.9397  -21.3616   35.3889 C   0  0  0  0  0  0  0  0  0  0  0  0
   28.9151  -22.7280   36.0680 C   0  0  0  0  0  0  0  0  0  0  0  0
   28.1350  -22.7840   37.3213 C   0  0  0  0  0  0  0  0  0  0  0  0
   28.2964  -23.8966   38.1821 N   0  0  0  0  0  0  0  0  0  0  0  0
   29.1908  -23.6855   39.2650 C   0  0  0  0  0  0  0  0  0  0  0  0
   28.4447  -22.9403   40.3607 C   0  0  0  0  0  0  0  0  0  0  0  0
   27.0038  -22.9981   39.9197 C   0  0  0  0  0  0  0  0  0  0  0  0
   26.9971  -24.0813   38.8679 C   0  0  0  0  0  0  0  0  0  0  0  0
 19 20  1  0  0  0
 20  1  1  0  0  0
  1  2  2  0  0  0
  2  3  1  0  0  0
  3  4  2  0  0  0
  4 21  1  0  0  0
 21 23  1  0  0  0
 23 24  1  0  0  0
 24 25  1  0  0  0
 25 26  1  0  0  0
 26 27  1  0  0  0
 27 28  1  0  0  0
 26 29  1  0  0  0
 29 30  1  0  0  0
 29 31  1  0  0  0
  4  5  1  0  0  0
  5  6  2  0  0  0
  6  7  1  0  0  0
  7  8  2  0  0  0
  8  9  1  0  0  0
  9 10  2  0  0  0
 10 32  1  0  0  0
 32 33  1  0  0  0
 33 34  1  0  0  0
 34 35  1  0  0  0
 35 36  1  0  0  0
 36 37  1  0  0  0
 37 38  1  0  0  0
 38 39  1  0  0  0
 39 40  1  0  0  0
  6 11  1  0  0  0
 11 12  1  0  0  0
 12 13  1  0  0  0
 13 14  1  0  0  0
 14 15  2  0  0  0
 14 16  2  0  0  0
 14 17  1  0  0  0
 17 18  1  0  0  0
 10  1  1  0  0  0
 40 36  1  0  0  0
 18 11  1  0  0  0
  8  3  1  0  0  0
 28 23  1  0  0  0
 21 22  1  0  0  0
M  END
> <minimizedAffinity>
-5.51301

> <CNNscore>
0.3779320717

> <CNNaffinity>
6.3345298767

> <CNN_VS>
2.3940219879

> <CNNaffinity_variance>
0.1405383050

$$$$
[H]c1c(OC([H])([H])C([H])([H])C([H])([H])N2C([H])([H])C([H])([H])C([H])([H])C2([H])[H])c(OC([H])([H])[H])c([H])c2c(N([H])C3([H])C([H])([H])C([H])([H])N(C([H])(C([H])([H])[H])C([H])([H])[H])C([H])([H])C3([H])[H])nc(N3C([H])([H])C([H])([H])S(=O)(=O)C([H])([H])C3([H])[H])nc12


 40 44  0  0  0  0  0  0  0  0999 V2000
   36.1044  -15.0873   36.1346 C   0  0  0  0  0  0  0  0  0  0  0  0
   36.5677  -16.2343   35.5366 C   0  0  0  0  0  0  0  0  0  0  0  0
   35.8170  -17.3654   35.4431 C   0  0  0  0  0  0  0  0  0  0  0  0
   36.2867  -18.4974   34.8177 C   0  0  0  0  0  0  0  0  0  0  0  0
   35.4330  -19.5631   34.7634 N   0  0  0  0  0  0  0  0  0  0  0  0
   34.1981  -19.5395   35.2810 C   0  0  0  0  0  0  0  0  0  0  0  0
   33.7599  -18.4006   35.8953 N   0  0  0  0  0  0  0  0  0  0  0  0
   34.5338  -17.3101   35.9910 C   0  0  0  0  0  0  0  0  0  0  0  0
   34.0369  -16.1811   36.5964 C   0  0  0  0  0  0  0  0  0  0  0  0
   34.8153  -15.0267   36.6842 C   0  0  0  0  0  0  0  0  0  0  0  0
   33.2822  -20.6170   35.3031 N   0  0  0  0  0  0  0  0  0  0  0  0
   33.2850  -21.5219   36.4138 C   0  0  0  0  0  0  0  0  0  0  0  0
   31.9014  -21.8960   36.9041 C   0  0  0  0  0  0  0  0  0  0  0  0
   31.0239  -22.6625   35.5594 S   0  0  0  0  0  0  0  0  0  0  0  0
   30.9475  -24.1469   35.6767 O   0  0  0  0  0  0  0  0  0  0  0  0
   29.6426  -22.0529   35.4309 O   0  0  0  0  0  0  0  0  0  0  0  0
   31.9593  -22.2684   34.0833 C   0  0  0  0  0  0  0  0  0  0  0  0
   32.4113  -20.8180   34.1820 C   0  0  0  0  0  0  0  0  0  0  0  0
   37.7025  -13.7431   37.3514 C   0  0  0  0  0  0  0  0  0  0  0  0
   36.9233  -13.9769   36.1952 O   0  0  0  0  0  0  0  0  0  0  0  0
   37.5869  -18.5730   34.3062 N   0  0  0  0  0  0  0  0  0  0  0  0
   37.7335  -17.9820   33.3974 H   0  0  0  0  0  0  0  0  0  0  0  0
   38.7344  -19.2366   34.7435 C   0  0  0  0  0  0  0  0  0  0  0  0
   40.0848  -18.9134   34.1746 C   0  0  0  0  0  0  0  0  0  0  0  0
   41.1134  -19.7890   34.9367 C   0  0  0  0  0  0  0  0  0  0  0  0
   40.4547  -20.8688   35.5802 N   0  0  0  0  0  0  0  0  0  0  0  0
   39.5129  -20.5763   36.5987 C   0  0  0  0  0  0  0  0  0  0  0  0
   38.8581  -19.2257   36.2649 C   0  0  0  0  0  0  0  0  0  0  0  0
   40.8718  -22.1743   35.3969 C   0  0  0  0  0  0  0  0  0  0  0  0
   39.6868  -23.0791   35.0995 C   0  0  0  0  0  0  0  0  0  0  0  0
   41.9181  -22.4411   34.3433 C   0  0  0  0  0  0  0  0  0  0  0  0
   34.3777  -13.9593   37.2367 O   0  0  0  0  0  0  0  0  0  0  0  0
   33.8462  -12.9095   37.7923 C   0  0  0  0  0  0  0  0  0  0  0  0
   33.6306  -11.8080   36.7585 C   0  0  0  0  0  0  0  0  0  0  0  0
   32.5886  -10.8218   37.1107 C   0  0  0  0  0  0  0  0  0  0  0  0
   32.9694   -9.6207   37.7568 N   0  0  0  0  0  0  0  0  0  0  0  0
   34.1142   -8.9863   37.2054 C   0  0  0  0  0  0  0  0  0  0  0  0
   33.6777   -8.1952   35.9823 C   0  0  0  0  0  0  0  0  0  0  0  0
   32.1718   -8.2149   36.0583 C   0  0  0  0  0  0  0  0  0  0  0  0
   31.8932   -8.6423   37.4794 C   0  0  0  0  0  0  0  0  0  0  0  0
 19 20  1  0  0  0
 20  1  1  0  0  0
  1  2  2  0  0  0
  2  3  1  0  0  0
  3  4  2  0  0  0
  4 21  1  0  0  0
 21 23  1  0  0  0
 23 24  1  0  0  0
 24 25  1  0  0  0
 25 26  1  0  0  0
 26 27  1  0  0  0
 27 28  1  0  0  0
 26 29  1  0  0  0
 29 30  1  0  0  0
 29 31  1  0  0  0
  4  5  1  0  0  0
  5  6  2  0  0  0
  6  7  1  0  0  0
  7  8  2  0  0  0
  8  9  1  0  0  0
  9 10  2  0  0  0
 10 32  1  0  0  0
 32 33  1  0  0  0
 33 34  1  0  0  0
 34 35  1  0  0  0
 35 36  1  0  0  0
 36 37  1  0  0  0
 37 38  1  0  0  0
 38 39  1  0  0  0
 39 40  1  0  0  0
  6 11  1  0  0  0
 11 12  1  0  0  0
 12 13  1  0  0  0
 13 14  1  0  0  0
 14 15  2  0  0  0
 14 16  2  0  0  0
 14 17  1  0  0  0
 17 18  1  0  0  0
 10  1  1  0  0  0
 40 36  1  0  0  0
 18 11  1  0  0  0
  8  3  1  0  0  0
 28 23  1  0  0  0
 21 22  1  0  0  0
M  END
> <minimizedAffinity>
-5.75570

> <CNNscore>
0.3687387109

> <CNNaffinity>
6.5211763382

> <CNN_VS>
2.4046101570

> <CNNaffinity_variance>
0.0282161329

$$$$
[H]c1c(OC([H])([H])C([H])([H])C([H])([H])N2C([H])([H])C([H])([H])C([H])([H])C2([H])[H])c(OC([H])([H])[H])c([H])c2c(N([H])C3([H])C([H])([H])C([H])([H])N(C([H])(C([H])([H])[H])C([H])([H])[H])C([H])([H])C3([H])[H])nc(N3C([H])([H])C([H])([H])S(=O)(=O)C([H])([H])C3([H])[H])nc12


 40 44  0  0  0  0  0  0  0  0999 V2000
   35.9314  -15.0464   36.3738 C   0  0  0  0  0  0  0  0  0  0  0  0
   36.4768  -16.3054   36.3012 C   0  0  0  0  0  0  0  0  0  0  0  0
   35.7157  -17.4265   36.1776 C   0  0  0  0  0  0  0  0  0  0  0  0
   36.2792  -18.6780   36.0799 C   0  0  0  0  0  0  0  0  0  0  0  0
   35.4151  -19.7265   35.9338 N   0  0  0  0  0  0  0  0  0  0  0  0
   34.0850  -19.5779   35.8839 C   0  0  0  0  0  0  0  0  0  0  0  0
   33.5553  -18.3225   35.9830 N   0  0  0  0  0  0  0  0  0  0  0  0
   34.3327  -17.2399   36.1275 C   0  0  0  0  0  0  0  0  0  0  0  0
   33.7519  -15.9966   36.1972 C   0  0  0  0  0  0  0  0  0  0  0  0
   34.5428  -14.8542   36.3217 C   0  0  0  0  0  0  0  0  0  0  0  0
   33.1327  -20.6188   35.7828 N   0  0  0  0  0  0  0  0  0  0  0  0
   32.3213  -20.7201   34.6065 C   0  0  0  0  0  0  0  0  0  0  0  0
   32.1580  -22.1362   34.0938 C   0  0  0  0  0  0  0  0  0  0  0  0
   31.4049  -23.1091   35.3791 S   0  0  0  0  0  0  0  0  0  0  0  0
   29.9543  -23.3660   35.1493 O   0  0  0  0  0  0  0  0  0  0  0  0
   32.1677  -24.4060   35.5582 O   0  0  0  0  0  0  0  0  0  0  0  0
   31.5681  -22.1413   36.8777 C   0  0  0  0  0  0  0  0  0  0  0  0
   32.9554  -21.5145   36.8883 C   0  0  0  0  0  0  0  0  0  0  0  0
   37.6441  -13.8668   37.6053 C   0  0  0  0  0  0  0  0  0  0  0  0
   36.7657  -13.9532   36.5010 O   0  0  0  0  0  0  0  0  0  0  0  0
   37.6613  -18.8750   36.1737 N   0  0  0  0  0  0  0  0  0  0  0  0
   38.1021  -18.4512   37.0807 H   0  0  0  0  0  0  0  0  0  0  0  0
   38.5786  -19.5256   35.3469 C   0  0  0  0  0  0  0  0  0  0  0  0
   38.5483  -21.0156   35.1716 C   0  0  0  0  0  0  0  0  0  0  0  0
   39.6558  -21.3688   34.1450 C   0  0  0  0  0  0  0  0  0  0  0  0
   40.5804  -20.2979   34.0355 N   0  0  0  0  0  0  0  0  0  0  0  0
   40.1170  -19.0516   33.5436 C   0  0  0  0  0  0  0  0  0  0  0  0
   38.6441  -18.8971   33.9573 C   0  0  0  0  0  0  0  0  0  0  0  0
   41.9397  -20.5073   34.1786 C   0  0  0  0  0  0  0  0  0  0  0  0
   42.4818  -19.7207   35.3612 C   0  0  0  0  0  0  0  0  0  0  0  0
   42.4251  -21.9285   34.3220 C   0  0  0  0  0  0  0  0  0  0  0  0
   34.0310  -13.6836   36.3831 O   0  0  0  0  0  0  0  0  0  0  0  0
   33.4796  -12.5052   36.3576 C   0  0  0  0  0  0  0  0  0  0  0  0
   33.3964  -11.9228   37.7657 C   0  0  0  0  0  0  0  0  0  0  0  0
   32.0324  -11.8533   38.3288 C   0  0  0  0  0  0  0  0  0  0  0  0
   30.9242  -11.8535   37.4475 N   0  0  0  0  0  0  0  0  0  0  0  0
   29.6829  -12.1840   38.0535 C   0  0  0  0  0  0  0  0  0  0  0  0
   29.1420  -10.9398   38.7405 C   0  0  0  0  0  0  0  0  0  0  0  0
   30.0353   -9.8333   38.2386 C   0  0  0  0  0  0  0  0  0  0  0  0
   30.7194  -10.4449   37.0396 C   0  0  0  0  0  0  0  0  0  0  0  0
 19 20  1  0  0  0
 20  1  1  0  0  0
  1  2  2  0  0  0
  2  3  1  0  0  0
  3  4  2  0  0  0
  4 21  1  0  0  0
 21 23  1  0  0  0
 23 24  1  0  0  0
 24 25  1  0  0  0
 25 26  1  0  0  0
 26 27  1  0  0  0
 27 28  1  0  0  0
 26 29  1  0  0  0
 29 30  1  0  0  0
 29 31  1  0  0  0
  4  5  1  0  0  0
  5  6  2  0  0  0
  6  7  1  0  0  0
  7  8  2  0  0  0
  8  9  1  0  0  0
  9 10  2  0  0  0
 10 32  1  0  0  0
 32 33  1  0  0  0
 33 34  1  0  0  0
 34 35  1  0  0  0
 35 36  1  0  0  0
 36 37  1  0  0  0
 37 38  1  0  0  0
 38 39  1  0  0  0
 39 40  1  0  0  0
  6 11  1  0  0  0
 11 12  1  0  0  0
 12 13  1  0  0  0
 13 14  1  0  0  0
 14 15  2  0  0  0
 14 16  2  0  0  0
 14 17  1  0  0  0
 17 18  1  0  0  0
 10  1  1  0  0  0
 40 36  1  0  0  0
 18 11  1  0  0  0
  8  3  1  0  0  0
 28 23  1  0  0  0
 21 22  1  0  0  0
M  END
> <minimizedAffinity>
-6.89632

> <CNNscore>
0.3216630220

> <CNNaffinity>
6.4877243042

> <CNN_VS>
2.0868608952

> <CNNaffinity_variance>
0.0473664887

$$$$
[H]c1c(OC([H])([H])C([H])([H])C([H])([H])N2C([H])([H])C([H])([H])C([H])([H])C2([H])[H])c(OC([H])([H])[H])c([H])c2c(N([H])C3([H])C([H])([H])C([H])([H])N(C([H])(C([H])([H])[H])C([H])([H])[H])C([H])([H])C3([H])[H])nc(N3C([H])([H])C([H])([H])S(=O)(=O)C([H])([H])C3([H])[H])nc12


 40 44  0  0  0  0  0  0  0  0999 V2000
   37.3350  -19.5018   35.5861 C   0  0  0  0  0  0  0  0  0  0  0  0
   36.0753  -19.1346   35.1785 C   0  0  0  0  0  0  0  0  0  0  0  0
   35.5343  -17.9221   35.4766 C   0  0  0  0  0  0  0  0  0  0  0  0
   34.2812  -17.5601   35.0383 C   0  0  0  0  0  0  0  0  0  0  0  0
   33.8541  -16.3074   35.3787 N   0  0  0  0  0  0  0  0  0  0  0  0
   34.5918  -15.4526   36.0990 C   0  0  0  0  0  0  0  0  0  0  0  0
   35.8325  -15.8408   36.5193 N   0  0  0  0  0  0  0  0  0  0  0  0
   36.3272  -17.0522   36.2279 C   0  0  0  0  0  0  0  0  0  0  0  0
   37.5909  -17.3849   36.6527 C   0  0  0  0  0  0  0  0  0  0  0  0
   38.1357  -18.6303   36.3391 C   0  0  0  0  0  0  0  0  0  0  0  0
   34.1953  -14.1641   36.5267 N   0  0  0  0  0  0  0  0  0  0  0  0
   32.9974  -13.5832   35.9976 C   0  0  0  0  0  0  0  0  0  0  0  0
   32.1428  -12.8862   37.0361 C   0  0  0  0  0  0  0  0  0  0  0  0
   33.1133  -11.5916   37.7763 S   0  0  0  0  0  0  0  0  0  0  0  0
   32.7658  -10.2329   37.2703 O   0  0  0  0  0  0  0  0  0  0  0  0
   32.9970  -11.6587   39.2856 O   0  0  0  0  0  0  0  0  0  0  0  0
   34.8108  -11.9379   37.3205 C   0  0  0  0  0  0  0  0  0  0  0  0
   35.0354  -13.4393   37.4349 C   0  0  0  0  0  0  0  0  0  0  0  0
   37.8091  -21.7887   36.2078 C   0  0  0  0  0  0  0  0  0  0  0  0
   37.8189  -20.7504   35.2484 O   0  0  0  0  0  0  0  0  0  0  0  0
   33.4652  -18.4435   34.3231 N   0  0  0  0  0  0  0  0  0  0  0  0
   33.6345  -18.4165   33.2427 H   0  0  0  0  0  0  0  0  0  0  0  0
   32.4966  -19.3653   34.7234 C   0  0  0  0  0  0  0  0  0  0  0  0
   31.0430  -18.9959   34.7710 C   0  0  0  0  0  0  0  0  0  0  0  0
   30.2695  -20.2730   35.1908 C   0  0  0  0  0  0  0  0  0  0  0  0
   31.1555  -21.2071   35.7877 N   0  0  0  0  0  0  0  0  0  0  0  0
   32.2004  -21.7486   34.9974 C   0  0  0  0  0  0  0  0  0  0  0  0
   32.6143  -20.6856   33.9664 C   0  0  0  0  0  0  0  0  0  0  0  0
   30.8869  -21.7587   37.0269 C   0  0  0  0  0  0  0  0  0  0  0  0
   29.4023  -22.0512   37.1733 C   0  0  0  0  0  0  0  0  0  0  0  0
   31.6336  -23.0088   37.4214 C   0  0  0  0  0  0  0  0  0  0  0  0
   39.3112  -18.9658   36.7156 O   0  0  0  0  0  0  0  0  0  0  0  0
   40.5409  -19.2490   37.0331 C   0  0  0  0  0  0  0  0  0  0  0  0
   41.4879  -18.8685   35.8985 C   0  0  0  0  0  0  0  0  0  0  0  0
   41.7339  -19.9387   34.9103 C   0  0  0  0  0  0  0  0  0  0  0  0
   41.2273  -21.2367   35.1624 N   0  0  0  0  0  0  0  0  0  0  0  0
   40.8278  -21.9544   34.0037 C   0  0  0  0  0  0  0  0  0  0  0  0
   42.0693  -22.5579   33.3658 C   0  0  0  0  0  0  0  0  0  0  0  0
   43.1440  -22.3537   34.4038 C   0  0  0  0  0  0  0  0  0  0  0  0
   42.3691  -22.0372   35.6603 C   0  0  0  0  0  0  0  0  0  0  0  0
 19 20  1  0  0  0
 20  1  1  0  0  0
  1  2  2  0  0  0
  2  3  1  0  0  0
  3  4  2  0  0  0
  4 21  1  0  0  0
 21 23  1  0  0  0
 23 24  1  0  0  0
 24 25  1  0  0  0
 25 26  1  0  0  0
 26 27  1  0  0  0
 27 28  1  0  0  0
 26 29  1  0  0  0
 29 30  1  0  0  0
 29 31  1  0  0  0
  4  5  1  0  0  0
  5  6  2  0  0  0
  6  7  1  0  0  0
  7  8  2  0  0  0
  8  9  1  0  0  0
  9 10  2  0  0  0
 10 32  1  0  0  0
 32 33  1  0  0  0
 33 34  1  0  0  0
 34 35  1  0  0  0
 35 36  1  0  0  0
 36 37  1  0  0  0
 37 38  1  0  0  0
 38 39  1  0  0  0
 39 40  1  0  0  0
  6 11  1  0  0  0
 11 12  1  0  0  0
 12 13  1  0  0  0
 13 14  1  0  0  0
 14 15  2  0  0  0
 14 16  2  0  0  0
 14 17  1  0  0  0
 17 18  1  0  0  0
 10  1  1  0  0  0
 40 36  1  0  0  0
 18 11  1  0  0  0
  8  3  1  0  0  0
 28 23  1  0  0  0
 21 22  1  0  0  0
M  END
> <minimizedAffinity>
-5.95908

> <CNNscore>
0.2681764066

> <CNNaffinity>
6.2610354424

> <CNN_VS>
1.6790620089

> <CNNaffinity_variance>
0.1649687737

$$$$
[H]c1c(OC([H])([H])C([H])([H])C([H])([H])N2C([H])([H])C([H])([H])C([H])([H])C2([H])[H])c(OC([H])([H])[H])c([H])c2c(N([H])C3([H])C([H])([H])C([H])([H])N(C([H])(C([H])([H])[H])C([H])([H])[H])C([H])([H])C3([H])[H])nc(N3C([H])([H])C([H])([H])S(=O)(=O)C([H])([H])C3([H])[H])nc12


 40 44  0  0  0  0  0  0  0  0999 V2000
   38.2821  -20.3819   35.1725 C   0  0  0  0  0  0  0  0  0  0  0  0
   36.9735  -20.0745   34.8883 C   0  0  0  0  0  0  0  0  0  0  0  0
   36.4085  -18.8867   35.2372 C   0  0  0  0  0  0  0  0  0  0  0  0
   35.1038  -18.5844   34.9217 C   0  0  0  0  0  0  0  0  0  0  0  0
   34.6544  -17.3511   35.3018 N   0  0  0  0  0  0  0  0  0  0  0  0
   35.4179  -16.4603   35.9476 C   0  0  0  0  0  0  0  0  0  0  0  0
   36.7098  -16.7895   36.2464 N   0  0  0  0  0  0  0  0  0  0  0  0
   37.2293  -17.9783   35.9087 C   0  0  0  0  0  0  0  0  0  0  0  0
   38.5419  -18.2510   36.2097 C   0  0  0  0  0  0  0  0  0  0  0  0
   39.1107  -19.4715   35.8449 C   0  0  0  0  0  0  0  0  0  0  0  0
   35.0056  -15.1894   36.4117 N   0  0  0  0  0  0  0  0  0  0  0  0
   34.0911  -14.4149   35.6268 C   0  0  0  0  0  0  0  0  0  0  0  0
   33.0039  -13.7410   36.4384 C   0  0  0  0  0  0  0  0  0  0  0  0
   33.7811  -12.6616   37.6202 S   0  0  0  0  0  0  0  0  0  0  0  0
   33.7216  -11.2234   37.2316 O   0  0  0  0  0  0  0  0  0  0  0  0
   33.1796  -12.8818   38.9933 O   0  0  0  0  0  0  0  0  0  0  0  0
   35.5027  -13.1544   37.6674 C   0  0  0  0  0  0  0  0  0  0  0  0
   35.5615  -14.6753   37.6293 C   0  0  0  0  0  0  0  0  0  0  0  0
   38.6550  -22.7214   35.6515 C   0  0  0  0  0  0  0  0  0  0  0  0
   38.7880  -21.6086   34.7897 O   0  0  0  0  0  0  0  0  0  0  0  0
   34.2641  -19.5072   34.2884 N   0  0  0  0  0  0  0  0  0  0  0  0
   34.4881  -19.6441   33.2264 H   0  0  0  0  0  0  0  0  0  0  0  0
   33.2147  -20.3008   34.7543 C   0  0  0  0  0  0  0  0  0  0  0  0
   32.6316  -21.3951   33.9092 C   0  0  0  0  0  0  0  0  0  0  0  0
   31.5468  -22.0953   34.7685 C   0  0  0  0  0  0  0  0  0  0  0  0
   31.1628  -21.2583   35.8481 N   0  0  0  0  0  0  0  0  0  0  0  0
   32.1349  -20.9253   36.8248 C   0  0  0  0  0  0  0  0  0  0  0  0
   33.5076  -20.8867   36.1331 C   0  0  0  0  0  0  0  0  0  0  0  0
   29.8340  -20.9566   36.0835 C   0  0  0  0  0  0  0  0  0  0  0  0
   29.4240  -19.7082   35.3190 C   0  0  0  0  0  0  0  0  0  0  0  0
   28.8051  -22.0210   35.7934 C   0  0  0  0  0  0  0  0  0  0  0  0
   40.3312  -19.7512   36.1064 O   0  0  0  0  0  0  0  0  0  0  0  0
   41.5758  -20.0827   36.2911 C   0  0  0  0  0  0  0  0  0  0  0  0
   42.2250  -19.1690   37.3267 C   0  0  0  0  0  0  0  0  0  0  0  0
   41.7351  -19.3506   38.7085 C   0  0  0  0  0  0  0  0  0  0  0  0
   42.2687  -20.4007   39.4944 N   0  0  0  0  0  0  0  0  0  0  0  0
   43.6867  -20.4804   39.4962 C   0  0  0  0  0  0  0  0  0  0  0  0
   44.2199  -19.4600   40.4896 C   0  0  0  0  0  0  0  0  0  0  0  0
   42.9903  -19.0052   41.2348 C   0  0  0  0  0  0  0  0  0  0  0  0
   41.9627  -20.0603   40.9026 C   0  0  0  0  0  0  0  0  0  0  0  0
 19 20  1  0  0  0
 20  1  1  0  0  0
  1  2  2  0  0  0
  2  3  1  0  0  0
  3  4  2  0  0  0
  4 21  1  0  0  0
 21 23  1  0  0  0
 23 24  1  0  0  0
 24 25  1  0  0  0
 25 26  1  0  0  0
 26 27  1  0  0  0
 27 28  1  0  0  0
 26 29  1  0  0  0
 29 30  1  0  0  0
 29 31  1  0  0  0
  4  5  1  0  0  0
  5  6  2  0  0  0
  6  7  1  0  0  0
  7  8  2  0  0  0
  8  9  1  0  0  0
  9 10  2  0  0  0
 10 32  1  0  0  0
 32 33  1  0  0  0
 33 34  1  0  0  0
 34 35  1  0  0  0
 35 36  1  0  0  0
 36 37  1  0  0  0
 37 38  1  0  0  0
 38 39  1  0  0  0
 39 40  1  0  0  0
  6 11  1  0  0  0
 11 12  1  0  0  0
 12 13  1  0  0  0
 13 14  1  0  0  0
 14 15  2  0  0  0
 14 16  2  0  0  0
 14 17  1  0  0  0
 17 18  1  0  0  0
 10  1  1  0  0  0
 40 36  1  0  0  0
 18 11  1  0  0  0
  8  3  1  0  0  0
 28 23  1  0  0  0
 21 22  1  0  0  0
M  END
> <minimizedAffinity>
-6.14113

> <CNNscore>
0.2119194716

> <CNNaffinity>
6.0125684738

> <CNN_VS>
1.2741802931

> <CNNaffinity_variance>
0.1142871827

$$$$
[H]c1c(OC([H])([H])C([H])([H])C([H])([H])N2C([H])([H])C([H])([H])C([H])([H])C2([H])[H])c(OC([H])([H])[H])c([H])c2c(N([H])C3([H])C([H])([H])C([H])([H])N(C([H])(C([H])([H])[H])C([H])([H])[H])C([H])([H])C3([H])[H])nc(N3C([H])([H])C([H])([H])S(=O)(=O)C([H])([H])C3([H])[H])nc12


 40 44  0  0  0  0  0  0  0  0999 V2000
   34.8774  -21.0883   38.8534 C   0  0  0  0  0  0  0  0  0  0  0  0
   35.2269  -20.1010   37.9640 C   0  0  0  0  0  0  0  0  0  0  0  0
   36.5197  -19.8464   37.6242 C   0  0  0  0  0  0  0  0  0  0  0  0
   36.8507  -18.8712   36.7117 C   0  0  0  0  0  0  0  0  0  0  0  0
   38.1800  -18.7241   36.4312 N   0  0  0  0  0  0  0  0  0  0  0  0
   39.1352  -19.4737   36.9963 C   0  0  0  0  0  0  0  0  0  0  0  0
   38.7751  -20.4346   37.8984 N   0  0  0  0  0  0  0  0  0  0  0  0
   37.4930  -20.6445   38.2290 C   0  0  0  0  0  0  0  0  0  0  0  0
   37.1810  -21.6406   39.1226 C   0  0  0  0  0  0  0  0  0  0  0  0
   35.8517  -21.8936   39.4615 C   0  0  0  0  0  0  0  0  0  0  0  0
   40.5284  -19.3444   36.7897 N   0  0  0  0  0  0  0  0  0  0  0  0
   41.0360  -19.2376   35.4543 C   0  0  0  0  0  0  0  0  0  0  0  0
   42.1219  -18.1938   35.2923 C   0  0  0  0  0  0  0  0  0  0  0  0
   43.4701  -18.6226   36.3713 S   0  0  0  0  0  0  0  0  0  0  0  0
   44.6217  -19.2433   35.6561 O   0  0  0  0  0  0  0  0  0  0  0  0
   43.9083  -17.4041   37.1582 O   0  0  0  0  0  0  0  0  0  0  0  0
   42.8088  -19.8316   37.5159 C   0  0  0  0  0  0  0  0  0  0  0  0
   41.4100  -19.3864   37.9196 C   0  0  0  0  0  0  0  0  0  0  0  0
   32.7237  -22.0057   38.2522 C   0  0  0  0  0  0  0  0  0  0  0  0
   33.5443  -21.2889   39.1530 O   0  0  0  0  0  0  0  0  0  0  0  0
   35.8838  -18.0396   36.1361 N   0  0  0  0  0  0  0  0  0  0  0  0
   36.0509  -16.9761   36.3306 H   0  0  0  0  0  0  0  0  0  0  0  0
   34.7642  -18.3032   35.3454 C   0  0  0  0  0  0  0  0  0  0  0  0
   33.6743  -17.2859   35.1753 C   0  0  0  0  0  0  0  0  0  0  0  0
   32.6425  -17.8948   34.1904 C   0  0  0  0  0  0  0  0  0  0  0  0
   32.8146  -19.3011   34.1096 N   0  0  0  0  0  0  0  0  0  0  0  0
   34.0365  -19.8046   33.5963 C   0  0  0  0  0  0  0  0  0  0  0  0
   35.1490  -18.8062   33.9565 C   0  0  0  0  0  0  0  0  0  0  0  0
   31.7525  -20.1653   34.3021 C   0  0  0  0  0  0  0  0  0  0  0  0
   32.2368  -21.6051   34.3616 C   0  0  0  0  0  0  0  0  0  0  0  0
   30.8646  -19.9386   35.5005 C   0  0  0  0  0  0  0  0  0  0  0  0
   35.5304  -22.8176   40.2856 O   0  0  0  0  0  0  0  0  0  0  0  0
   35.2850  -23.7996   41.1034 C   0  0  0  0  0  0  0  0  0  0  0  0
   34.2612  -24.7563   40.4990 C   0  0  0  0  0  0  0  0  0  0  0  0
   32.8691  -24.5357   40.9412 C   0  0  0  0  0  0  0  0  0  0  0  0
   32.6007  -24.4014   42.3250 N   0  0  0  0  0  0  0  0  0  0  0  0
   31.6911  -23.3620   42.6560 C   0  0  0  0  0  0  0  0  0  0  0  0
   30.2780  -23.8749   42.4271 C   0  0  0  0  0  0  0  0  0  0  0  0
   30.4622  -25.3559   42.2106 C   0  0  0  0  0  0  0  0  0  0  0  0
   31.8579  -25.6191   42.7227 C   0  0  0  0  0  0  0  0  0  0  0  0
 19 20  1  0  0  0
 20  1  1  0  0  0
  1  2  2  0  0  0
  2  3  1  0  0  0
  3  4  2  0  0  0
  4 21  1  0  0  0
 21 23  1  0  0  0
 23 24  1  0  0  0
 24 25  1  0  0  0
 25 26  1  0  0  0
 26 27  1  0  0  0
 27 28  1  0  0  0
 26 29  1  0  0  0
 29 30  1  0  0  0
 29 31  1  0  0  0
  4  5  1  0  0  0
  5  6  2  0  0  0
  6  7  1  0  0  0
  7  8  2  0  0  0
  8  9  1  0  0  0
  9 10  2  0  0  0
 10 32  1  0  0  0
 32 33  1  0  0  0
 33 34  1  0  0  0
 34 35  1  0  0  0
 35 36  1  0  0  0
 36 37  1  0  0  0
 37 38  1  0  0  0
 38 39  1  0  0  0
 39 40  1  0  0  0
  6 11  1  0  0  0
 11 12  1  0  0  0
 12 13  1  0  0  0
 13 14  1  0  0  0
 14 15  2  0  0  0
 14 16  2  0  0  0
 14 17  1  0  0  0
 17 18  1  0  0  0
 10  1  1  0  0  0
 40 36  1  0  0  0
 18 11  1  0  0  0
  8  3  1  0  0  0
 28 23  1  0  0  0
 21 22  1  0  0  0
M  END
> <minimizedAffinity>
-4.90912

> <CNNscore>
0.2051277906

> <CNNaffinity>
5.4825615883

> <CNN_VS>
1.1246258020

> <CNNaffinity_variance>
0.4418210089

$$$$
[H]c1c(OC([H])([H])C([H])([H])C([H])([H])N2C([H])([H])C([H])([H])C([H])([H])C2([H])[H])c(OC([H])([H])[H])c([H])c2c(N([H])C3([H])C([H])([H])C([H])([H])N(C4([H])C([H])([H])C4([H])[H])C([H])([H])C3([H])[H])nc(N3C([H])([H])C([H])([H])S(=O)(=O)C([H])([H])C3([H])[H])nc12


 40 45  0  0  0  0  0  0  0  0999 V2000
   35.9384  -14.1269   36.5972 C   0  0  0  0  0  0  0  0  0  0  0  0
   36.4135  -15.2897   35.9845 C   0  0  0  0  0  0  0  0  0  0  0  0
   35.5576  -16.2677   35.5493 C   0  0  0  0  0  0  0  0  0  0  0  0
   35.9689  -17.4356   34.9399 C   0  0  0  0  0  0  0  0  0  0  0  0
   35.0676  -18.3511   34.5406 N   0  0  0  0  0  0  0  0  0  0  0  0
   33.7532  -18.1575   34.7213 C   0  0  0  0  0  0  0  0  0  0  0  0
   33.3587  -17.0268   35.3110 N   0  0  0  0  0  0  0  0  0  0  0  0
   34.1874  -16.0819   35.7299 C   0  0  0  0  0  0  0  0  0  0  0  0
   33.7483  -14.9193   36.3401 C   0  0  0  0  0  0  0  0  0  0  0  0
   34.5913  -13.9350   36.7793 C   0  0  0  0  0  0  0  0  0  0  0  0
   32.7974  -19.1495   34.2869 N   0  0  0  0  0  0  0  0  0  0  0  0
   31.4395  -18.7577   34.0901 C   0  0  0  0  0  0  0  0  0  0  0  0
   30.4973  -19.3765   35.0986 C   0  0  0  0  0  0  0  0  0  0  0  0
   31.2345  -20.8612   35.7261 S   0  0  0  0  0  0  0  0  0  0  0  0
   32.1635  -20.5693   36.8776 O   0  0  0  0  0  0  0  0  0  0  0  0
   30.1883  -21.8635   36.1428 O   0  0  0  0  0  0  0  0  0  0  0  0
   32.2467  -21.5355   34.4019 C   0  0  0  0  0  0  0  0  0  0  0  0
   33.2796  -20.4833   34.0794 C   0  0  0  0  0  0  0  0  0  0  0  0
   38.0378  -13.4826   37.6903 C   0  0  0  0  0  0  0  0  0  0  0  0
   36.8230  -13.1523   37.0288 O   0  0  0  0  0  0  0  0  0  0  0  0
   37.3714  -17.6525   34.7275 N   0  0  0  0  0  0  0  0  0  0  0  0
   38.0370  -16.9285   34.4600 H   0  0  0  0  0  0  0  0  0  0  0  0
   37.9222  -19.0049   34.8992 C   0  0  0  0  0  0  0  0  0  0  0  0
   38.7917  -19.3437   33.7097 C   0  0  0  0  0  0  0  0  0  0  0  0
   39.6701  -20.5292   34.0150 C   0  0  0  0  0  0  0  0  0  0  0  0
   40.5971  -20.2966   35.0701 N   0  0  0  0  0  0  0  0  0  0  0  0
   40.1757  -19.2842   36.0075 C   0  0  0  0  0  0  0  0  0  0  0  0
   38.7070  -19.1369   36.1847 C   0  0  0  0  0  0  0  0  0  0  0  0
   41.9487  -20.0372   34.6682 C   0  0  0  0  0  0  0  0  0  0  0  0
   42.3413  -18.7590   34.0234 C   0  0  0  0  0  0  0  0  0  0  0  0
   42.8782  -19.1772   35.3984 C   0  0  0  0  0  0  0  0  0  0  0  0
   34.0571  -12.8171   37.3733 O   0  0  0  0  0  0  0  0  0  0  0  0
   32.8216  -12.8532   38.0547 C   0  0  0  0  0  0  0  0  0  0  0  0
   31.9630  -11.6535   37.7014 C   0  0  0  0  0  0  0  0  0  0  0  0
   30.5183  -12.0387   37.8256 C   0  0  0  0  0  0  0  0  0  0  0  0
   29.6381  -10.9620   37.4511 N   0  0  0  0  0  0  0  0  0  0  0  0
   28.2846  -11.2580   37.7757 C   0  0  0  0  0  0  0  0  0  0  0  0
   28.0049  -10.5579   39.1005 C   0  0  0  0  0  0  0  0  0  0  0  0
   28.8561   -9.3361   39.0134 C   0  0  0  0  0  0  0  0  0  0  0  0
   30.0056   -9.7535   38.1508 C   0  0  0  0  0  0  0  0  0  0  0  0
 19 20  1  0  0  0
 20  1  1  0  0  0
  1  2  2  0  0  0
  2  3  1  0  0  0
  3  4  2  0  0  0
  4 21  1  0  0  0
 21 23  1  0  0  0
 23 24  1  0  0  0
 24 25  1  0  0  0
 25 26  1  0  0  0
 26 27  1  0  0  0
 27 28  1  0  0  0
 26 29  1  0  0  0
 29 30  1  0  0  0
 30 31  1  0  0  0
  4  5  1  0  0  0
  5  6  2  0  0  0
  6  7  1  0  0  0
  7  8  2  0  0  0
  8  9  1  0  0  0
  9 10  2  0  0  0
 10 32  1  0  0  0
 32 33  1  0  0  0
 33 34  1  0  0  0
 34 35  1  0  0  0
 35 36  1  0  0  0
 36 37  1  0  0  0
 37 38  1  0  0  0
 38 39  1  0  0  0
 39 40  1  0  0  0
  6 11  1  0  0  0
 11 12  1  0  0  0
 12 13  1  0  0  0
 13 14  1  0  0  0
 14 15  2  0  0  0
 14 16  2  0  0  0
 14 17  1  0  0  0
 17 18  1  0  0  0
 10  1  1  0  0  0
 40 36  1  0  0  0
 18 11  1  0  0  0
  8  3  1  0  0  0
 28 23  1  0  0  0
 31 29  1  0  0  0
 21 22  1  0  0  0
M  END
> <minimizedAffinity>
-8.87051

> <CNNscore>
0.7639156580

> <CNNaffinity>
7.3745565414

> <CNN_VS>
5.6335391998

> <CNNaffinity_variance>
0.0784250051

$$$$
[H]c1c(OC([H])([H])C([H])([H])C([H])([H])N2C([H])([H])C([H])([H])C([H])([H])C2([H])[H])c(OC([H])([H])[H])c([H])c2c(N([H])C3([H])C([H])([H])C([H])([H])N(C4([H])C([H])([H])C4([H])[H])C([H])([H])C3([H])[H])nc(N3C([H])([H])C([H])([H])S(=O)(=O)C([H])([H])C3([H])[H])nc12


 40 45  0  0  0  0  0  0  0  0999 V2000
   36.5041  -14.9338   37.5030 C   0  0  0  0  0  0  0  0  0  0  0  0
   36.7643  -16.2855   37.2619 C   0  0  0  0  0  0  0  0  0  0  0  0
   35.8560  -17.0830   36.6160 C   0  0  0  0  0  0  0  0  0  0  0  0
   36.0577  -18.4226   36.3523 C   0  0  0  0  0  0  0  0  0  0  0  0
   35.1168  -19.1416   35.7137 N   0  0  0  0  0  0  0  0  0  0  0  0
   33.9645  -18.5825   35.3174 C   0  0  0  0  0  0  0  0  0  0  0  0
   33.7725  -17.2866   35.5739 N   0  0  0  0  0  0  0  0  0  0  0  0
   34.6522  -16.5170   36.1974 C   0  0  0  0  0  0  0  0  0  0  0  0
   34.4243  -15.1752   36.4509 C   0  0  0  0  0  0  0  0  0  0  0  0
   35.3219  -14.3676   37.0947 C   0  0  0  0  0  0  0  0  0  0  0  0
   32.9638  -19.3674   34.6325 N   0  0  0  0  0  0  0  0  0  0  0  0
   31.7556  -18.7320   34.2171 C   0  0  0  0  0  0  0  0  0  0  0  0
   30.5430  -19.2210   34.9775 C   0  0  0  0  0  0  0  0  0  0  0  0
   30.8858  -20.8411   35.6093 S   0  0  0  0  0  0  0  0  0  0  0  0
   31.6028  -20.7737   36.9345 O   0  0  0  0  0  0  0  0  0  0  0  0
   29.6272  -21.6605   35.7398 O   0  0  0  0  0  0  0  0  0  0  0  0
   32.0157  -21.6205   34.4481 C   0  0  0  0  0  0  0  0  0  0  0  0
   33.2511  -20.7542   34.4114 C   0  0  0  0  0  0  0  0  0  0  0  0
   38.3483  -13.3173   37.4480 C   0  0  0  0  0  0  0  0  0  0  0  0
   37.4377  -14.1476   38.1579 O   0  0  0  0  0  0  0  0  0  0  0  0
   37.2911  -19.0332   36.7585 N   0  0  0  0  0  0  0  0  0  0  0  0
   37.4545  -19.4627   37.6681 H   0  0  0  0  0  0  0  0  0  0  0  0
   38.4223  -19.0586   35.8195 C   0  0  0  0  0  0  0  0  0  0  0  0
   39.7174  -19.0099   36.5980 C   0  0  0  0  0  0  0  0  0  0  0  0
   40.8761  -19.4197   35.7264 C   0  0  0  0  0  0  0  0  0  0  0  0
   40.7964  -20.7642   35.2650 N   0  0  0  0  0  0  0  0  0  0  0  0
   39.4509  -21.2795   35.1920 C   0  0  0  0  0  0  0  0  0  0  0  0
   38.3869  -20.2764   34.9242 C   0  0  0  0  0  0  0  0  0  0  0  0
   41.6296  -21.7096   35.9487 C   0  0  0  0  0  0  0  0  0  0  0  0
   41.1643  -22.4294   37.1608 C   0  0  0  0  0  0  0  0  0  0  0  0
   41.4859  -23.1611   35.8512 C   0  0  0  0  0  0  0  0  0  0  0  0
   35.0021  -13.0471   37.2989 O   0  0  0  0  0  0  0  0  0  0  0  0
   33.7899  -12.4930   36.8346 C   0  0  0  0  0  0  0  0  0  0  0  0
   33.0619  -11.7551   37.9422 C   0  0  0  0  0  0  0  0  0  0  0  0
   31.8078  -12.5055   38.2809 C   0  0  0  0  0  0  0  0  0  0  0  0
   30.6635  -11.9927   37.5724 N   0  0  0  0  0  0  0  0  0  0  0  0
   29.4546  -12.2523   38.2768 C   0  0  0  0  0  0  0  0  0  0  0  0
   29.1215  -10.9705   39.0314 C   0  0  0  0  0  0  0  0  0  0  0  0
   29.6381   -9.9084   38.1203 C   0  0  0  0  0  0  0  0  0  0  0  0
   30.7803  -10.5628   37.4084 C   0  0  0  0  0  0  0  0  0  0  0  0
 19 20  1  0  0  0
 20  1  1  0  0  0
  1  2  2  0  0  0
  2  3  1  0  0  0
  3  4  2  0  0  0
  4 21  1  0  0  0
 21 23  1  0  0  0
 23 24  1  0  0  0
 24 25  1  0  0  0
 25 26  1  0  0  0
 26 27  1  0  0  0
 27 28  1  0  0  0
 26 29  1  0  0  0
 29 30  1  0  0  0
 30 31  1  0  0  0
  4  5  1  0  0  0
  5  6  2  0  0  0
  6  7  1  0  0  0
  7  8  2  0  0  0
  8  9  1  0  0  0
  9 10  2  0  0  0
 10 32  1  0  0  0
 32 33  1  0  0  0
 33 34  1  0  0  0
 34 35  1  0  0  0
 35 36  1  0  0  0
 36 37  1  0  0  0
 37 38  1  0  0  0
 38 39  1  0  0  0
 39 40  1  0  0  0
  6 11  1  0  0  0
 11 12  1  0  0  0
 12 13  1  0  0  0
 13 14  1  0  0  0
 14 15  2  0  0  0
 14 16  2  0  0  0
 14 17  1  0  0  0
 17 18  1  0  0  0
 10  1  1  0  0  0
 40 36  1  0  0  0
 18 11  1  0  0  0
  8  3  1  0  0  0
 28 23  1  0  0  0
 31 29  1  0  0  0
 21 22  1  0  0  0
M  END
> <minimizedAffinity>
-8.18983

> <CNNscore>
0.6535418034

> <CNNaffinity>
7.2035131454

> <CNN_VS>
4.7077970505

> <CNNaffinity_variance>
0.0621583350

$$$$
[H]c1c(OC([H])([H])C([H])([H])C([H])([H])N2C([H])([H])C([H])([H])C([H])([H])C2([H])[H])c(OC([H])([H])[H])c([H])c2c(N([H])C3([H])C([H])([H])C([H])([H])N(C4([H])C([H])([H])C4([H])[H])C([H])([H])C3([H])[H])nc(N3C([H])([H])C([H])([H])S(=O)(=O)C([H])([H])C3([H])[H])nc12


 40 45  0  0  0  0  0  0  0  0999 V2000
   35.9557  -15.1424   36.3060 C   0  0  0  0  0  0  0  0  0  0  0  0
   36.2851  -16.4896   36.1338 C   0  0  0  0  0  0  0  0  0  0  0  0
   35.3410  -17.4143   35.7705 C   0  0  0  0  0  0  0  0  0  0  0  0
   35.6076  -18.7560   35.5877 C   0  0  0  0  0  0  0  0  0  0  0  0
   34.6261  -19.6045   35.2317 N   0  0  0  0  0  0  0  0  0  0  0  0
   33.3697  -19.1751   35.0451 C   0  0  0  0  0  0  0  0  0  0  0  0
   33.1152  -17.8768   35.2226 N   0  0  0  0  0  0  0  0  0  0  0  0
   34.0294  -16.9841   35.5726 C   0  0  0  0  0  0  0  0  0  0  0  0
   33.7349  -15.6431   35.7509 C   0  0  0  0  0  0  0  0  0  0  0  0
   34.6672  -14.7094   36.1135 C   0  0  0  0  0  0  0  0  0  0  0  0
   32.3266  -20.0981   34.6626 N   0  0  0  0  0  0  0  0  0  0  0  0
   31.0229  -19.5879   34.3864 C   0  0  0  0  0  0  0  0  0  0  0  0
   29.9950  -20.0165   35.4099 C   0  0  0  0  0  0  0  0  0  0  0  0
   30.5556  -21.5085   36.1853 S   0  0  0  0  0  0  0  0  0  0  0  0
   31.4800  -21.2140   37.3399 O   0  0  0  0  0  0  0  0  0  0  0  0
   29.3995  -22.3581   36.6481 O   0  0  0  0  0  0  0  0  0  0  0  0
   31.5254  -22.3959   34.9585 C   0  0  0  0  0  0  0  0  0  0  0  0
   32.6712  -21.4872   34.5849 C   0  0  0  0  0  0  0  0  0  0  0  0
   37.4851  -14.2094   37.9816 C   0  0  0  0  0  0  0  0  0  0  0  0
   36.9273  -14.2261   36.6735 O   0  0  0  0  0  0  0  0  0  0  0  0
   36.9497  -19.2295   35.7710 N   0  0  0  0  0  0  0  0  0  0  0  0
   37.4725  -19.1695   36.6438 H   0  0  0  0  0  0  0  0  0  0  0  0
   37.6519  -19.8516   34.6388 C   0  0  0  0  0  0  0  0  0  0  0  0
   38.3389  -18.7769   33.8271 C   0  0  0  0  0  0  0  0  0  0  0  0
   39.3684  -19.3823   32.9085 C   0  0  0  0  0  0  0  0  0  0  0  0
   40.4315  -20.0358   33.5937 N   0  0  0  0  0  0  0  0  0  0  0  0
   40.0754  -20.5136   34.9076 C   0  0  0  0  0  0  0  0  0  0  0  0
   38.6499  -20.8916   35.0947 C   0  0  0  0  0  0  0  0  0  0  0  0
   41.6645  -19.3084   33.6719 C   0  0  0  0  0  0  0  0  0  0  0  0
   41.8745  -18.2301   34.6704 C   0  0  0  0  0  0  0  0  0  0  0  0
   42.6916  -19.5285   34.6886 C   0  0  0  0  0  0  0  0  0  0  0  0
   34.2751  -13.4014   36.2655 O   0  0  0  0  0  0  0  0  0  0  0  0
   32.9194  -13.0159   36.1906 C   0  0  0  0  0  0  0  0  0  0  0  0
   32.4279  -12.4708   37.5182 C   0  0  0  0  0  0  0  0  0  0  0  0
   31.5908  -11.2526   37.2614 C   0  0  0  0  0  0  0  0  0  0  0  0
   32.1202  -10.0852   37.9182 N   0  0  0  0  0  0  0  0  0  0  0  0
   33.5428  -10.0698   37.8877 C   0  0  0  0  0  0  0  0  0  0  0  0
   33.9308   -9.1610   36.7271 C   0  0  0  0  0  0  0  0  0  0  0  0
   32.8357   -8.1482   36.7216 C   0  0  0  0  0  0  0  0  0  0  0  0
   31.6516   -8.8888   37.2593 C   0  0  0  0  0  0  0  0  0  0  0  0
 19 20  1  0  0  0
 20  1  1  0  0  0
  1  2  2  0  0  0
  2  3  1  0  0  0
  3  4  2  0  0  0
  4 21  1  0  0  0
 21 23  1  0  0  0
 23 24  1  0  0  0
 24 25  1  0  0  0
 25 26  1  0  0  0
 26 27  1  0  0  0
 27 28  1  0  0  0
 26 29  1  0  0  0
 29 30  1  0  0  0
 30 31  1  0  0  0
  4  5  1  0  0  0
  5  6  2  0  0  0
  6  7  1  0  0  0
  7  8  2  0  0  0
  8  9  1  0  0  0
  9 10  2  0  0  0
 10 32  1  0  0  0
 32 33  1  0  0  0
 33 34  1  0  0  0
 34 35  1  0  0  0
 35 36  1  0  0  0
 36 37  1  0  0  0
 37 38  1  0  0  0
 38 39  1  0  0  0
 39 40  1  0  0  0
  6 11  1  0  0  0
 11 12  1  0  0  0
 12 13  1  0  0  0
 13 14  1  0  0  0
 14 15  2  0  0  0
 14 16  2  0  0  0
 14 17  1  0  0  0
 17 18  1  0  0  0
 10  1  1  0  0  0
 40 36  1  0  0  0
 18 11  1  0  0  0
  8  3  1  0  0  0
 28 23  1  0  0  0
 31 29  1  0  0  0
 21 22  1  0  0  0
M  END
> <minimizedAffinity>
-8.03723

> <CNNscore>
0.5593206286

> <CNNaffinity>
7.1560811996

> <CNN_VS>
4.0025439262

> <CNNaffinity_variance>
0.0591366887

$$$$
[H]c1c(OC([H])([H])C([H])([H])C([H])([H])N2C([H])([H])C([H])([H])C([H])([H])C2([H])[H])c(OC([H])([H])[H])c([H])c2c(N([H])C3([H])C([H])([H])C([H])([H])N(C4([H])C([H])([H])C4([H])[H])C([H])([H])C3([H])[H])nc(N3C([H])([H])C([H])([H])S(=O)(=O)C([H])([H])C3([H])[H])nc12


 40 45  0  0  0  0  0  0  0  0999 V2000
   35.9095  -14.1065   36.7441 C   0  0  0  0  0  0  0  0  0  0  0  0
   36.4029  -15.3396   36.3092 C   0  0  0  0  0  0  0  0  0  0  0  0
   35.5675  -16.3112   35.8229 C   0  0  0  0  0  0  0  0  0  0  0  0
   35.9973  -17.5461   35.3816 C   0  0  0  0  0  0  0  0  0  0  0  0
   35.1151  -18.4502   34.9184 N   0  0  0  0  0  0  0  0  0  0  0  0
   33.8027  -18.1803   34.8719 C   0  0  0  0  0  0  0  0  0  0  0  0
   33.3902  -16.9849   35.2995 N   0  0  0  0  0  0  0  0  0  0  0  0
   34.1995  -16.0465   35.7681 C   0  0  0  0  0  0  0  0  0  0  0  0
   33.7419  -14.8154   36.2062 C   0  0  0  0  0  0  0  0  0  0  0  0
   34.5643  -13.8367   36.6940 C   0  0  0  0  0  0  0  0  0  0  0  0
   32.8677  -19.1611   34.3716 N   0  0  0  0  0  0  0  0  0  0  0  0
   31.5194  -18.7643   34.1252 C   0  0  0  0  0  0  0  0  0  0  0  0
   30.5344  -19.4076   35.0757 C   0  0  0  0  0  0  0  0  0  0  0  0
   31.2446  -20.9075   35.6980 S   0  0  0  0  0  0  0  0  0  0  0  0
   32.1220  -20.6444   36.8961 O   0  0  0  0  0  0  0  0  0  0  0  0
   30.1821  -21.9196   36.0435 O   0  0  0  0  0  0  0  0  0  0  0  0
   32.3146  -21.5490   34.4033 C   0  0  0  0  0  0  0  0  0  0  0  0
   33.3597  -20.4894   34.1525 C   0  0  0  0  0  0  0  0  0  0  0  0
   38.1109  -13.4491   37.6036 C   0  0  0  0  0  0  0  0  0  0  0  0
   36.7735  -13.1399   37.2317 O   0  0  0  0  0  0  0  0  0  0  0  0
   37.4002  -17.8460   35.4127 N   0  0  0  0  0  0  0  0  0  0  0  0
   38.0815  -17.5081   34.7342 H   0  0  0  0  0  0  0  0  0  0  0  0
   37.9275  -18.7000   36.4872 C   0  0  0  0  0  0  0  0  0  0  0  0
   36.7768  -19.2330   37.3103 C   0  0  0  0  0  0  0  0  0  0  0  0
   37.2245  -20.3955   38.1579 C   0  0  0  0  0  0  0  0  0  0  0  0
   37.6623  -21.5191   37.4011 N   0  0  0  0  0  0  0  0  0  0  0  0
   38.1522  -21.1845   36.0860 C   0  0  0  0  0  0  0  0  0  0  0  0
   38.7645  -19.8371   35.9466 C   0  0  0  0  0  0  0  0  0  0  0  0
   36.7309  -22.6041   37.2980 C   0  0  0  0  0  0  0  0  0  0  0  0
   36.0243  -23.1439   38.4868 C   0  0  0  0  0  0  0  0  0  0  0  0
   35.2774  -22.4530   37.3384 C   0  0  0  0  0  0  0  0  0  0  0  0
   34.0128  -12.6471   37.1045 O   0  0  0  0  0  0  0  0  0  0  0  0
   33.0851  -12.5825   38.1663 C   0  0  0  0  0  0  0  0  0  0  0  0
   31.8025  -11.8965   37.7357 C   0  0  0  0  0  0  0  0  0  0  0  0
   30.6659  -12.4392   38.5508 C   0  0  0  0  0  0  0  0  0  0  0  0
   29.7592  -11.4020   38.9711 N   0  0  0  0  0  0  0  0  0  0  0  0
   29.0496  -10.8510   37.8675 C   0  0  0  0  0  0  0  0  0  0  0  0
   27.6923  -11.5445   37.8491 C   0  0  0  0  0  0  0  0  0  0  0  0
   27.4263  -11.7860   39.2967 C   0  0  0  0  0  0  0  0  0  0  0  0
   28.7887  -11.9358   39.8976 C   0  0  0  0  0  0  0  0  0  0  0  0
 19 20  1  0  0  0
 20  1  1  0  0  0
  1  2  2  0  0  0
  2  3  1  0  0  0
  3  4  2  0  0  0
  4 21  1  0  0  0
 21 23  1  0  0  0
 23 24  1  0  0  0
 24 25  1  0  0  0
 25 26  1  0  0  0
 26 27  1  0  0  0
 27 28  1  0  0  0
 26 29  1  0  0  0
 29 30  1  0  0  0
 30 31  1  0  0  0
  4  5  1  0  0  0
  5  6  2  0  0  0
  6  7  1  0  0  0
  7  8  2  0  0  0
  8  9  1  0  0  0
  9 10  2  0  0  0
 10 32  1  0  0  0
 32 33  1  0  0  0
 33 34  1  0  0  0
 34 35  1  0  0  0
 35 36  1  0  0  0
 36 37  1  0  0  0
 37 38  1  0  0  0
 38 39  1  0  0  0
 39 40  1  0  0  0
  6 11  1  0  0  0
 11 12  1  0  0  0
 12 13  1  0  0  0
 13 14  1  0  0  0
 14 15  2  0  0  0
 14 16  2  0  0  0
 14 17  1  0  0  0
 17 18  1  0  0  0
 10  1  1  0  0  0
 40 36  1  0  0  0
 18 11  1  0  0  0
  8  3  1  0  0  0
 28 23  1  0  0  0
 31 29  1  0  0  0
 21 22  1  0  0  0
M  END
> <minimizedAffinity>
-8.09772

> <CNNscore>
0.5442910790

> <CNNaffinity>
7.0836434364

> <CNN_VS>
3.8555638790

> <CNNaffinity_variance>
0.1427180767

$$$$
[H]c1c(OC([H])([H])C([H])([H])C([H])([H])N2C([H])([H])C([H])([H])C([H])([H])C2([H])[H])c(OC([H])([H])[H])c([H])c2c(N([H])C3([H])C([H])([H])C([H])([H])N(C4([H])C([H])([H])C4([H])[H])C([H])([H])C3([H])[H])nc(N3C([H])([H])C([H])([H])S(=O)(=O)C([H])([H])C3([H])[H])nc12


 40 45  0  0  0  0  0  0  0  0999 V2000
   36.1743  -14.1782   36.6880 C   0  0  0  0  0  0  0  0  0  0  0  0
   36.7820  -15.4341   36.6077 C   0  0  0  0  0  0  0  0  0  0  0  0
   36.0619  -16.5564   36.2910 C   0  0  0  0  0  0  0  0  0  0  0  0
   36.6073  -17.8208   36.1989 C   0  0  0  0  0  0  0  0  0  0  0  0
   35.8345  -18.8762   35.8841 N   0  0  0  0  0  0  0  0  0  0  0  0
   34.5219  -18.7319   35.6521 C   0  0  0  0  0  0  0  0  0  0  0  0
   33.9975  -17.5077   35.7419 N   0  0  0  0  0  0  0  0  0  0  0  0
   34.6954  -16.4238   36.0469 C   0  0  0  0  0  0  0  0  0  0  0  0
   34.1230  -15.1662   36.1342 C   0  0  0  0  0  0  0  0  0  0  0  0
   34.8296  -14.0376   36.4494 C   0  0  0  0  0  0  0  0  0  0  0  0
   33.7052  -19.8746   35.3148 N   0  0  0  0  0  0  0  0  0  0  0  0
   33.4025  -20.1237   33.9427 C   0  0  0  0  0  0  0  0  0  0  0  0
   31.9388  -19.9236   33.6181 C   0  0  0  0  0  0  0  0  0  0  0  0
   30.9962  -20.1229   35.1058 S   0  0  0  0  0  0  0  0  0  0  0  0
   30.9265  -18.8358   35.8887 O   0  0  0  0  0  0  0  0  0  0  0  0
   29.6069  -20.6309   34.8151 O   0  0  0  0  0  0  0  0  0  0  0  0
   31.8870  -21.3036   36.1281 C   0  0  0  0  0  0  0  0  0  0  0  0
   33.2429  -20.6964   36.3943 C   0  0  0  0  0  0  0  0  0  0  0  0
   38.2412  -13.1628   37.5330 C   0  0  0  0  0  0  0  0  0  0  0  0
   36.9229  -13.0582   37.0098 O   0  0  0  0  0  0  0  0  0  0  0  0
   38.0131  -17.9903   36.4317 N   0  0  0  0  0  0  0  0  0  0  0  0
   38.6290  -17.2738   36.8137 H   0  0  0  0  0  0  0  0  0  0  0  0
   38.6439  -19.2781   36.1067 C   0  0  0  0  0  0  0  0  0  0  0  0
   39.2473  -19.2023   34.7225 C   0  0  0  0  0  0  0  0  0  0  0  0
   40.2197  -20.3325   34.5049 C   0  0  0  0  0  0  0  0  0  0  0  0
   41.3434  -20.2953   35.3782 N   0  0  0  0  0  0  0  0  0  0  0  0
   41.0940  -19.6136   36.6250 C   0  0  0  0  0  0  0  0  0  0  0  0
   39.6942  -19.6658   37.1227 C   0  0  0  0  0  0  0  0  0  0  0  0
   42.5632  -19.8055   34.8059 C   0  0  0  0  0  0  0  0  0  0  0  0
   42.6776  -18.4251   34.2718 C   0  0  0  0  0  0  0  0  0  0  0  0
   43.4899  -18.9004   35.4835 C   0  0  0  0  0  0  0  0  0  0  0  0
   34.1693  -12.8343   36.5112 O   0  0  0  0  0  0  0  0  0  0  0  0
   32.7655  -12.7597   36.6371 C   0  0  0  0  0  0  0  0  0  0  0  0
   32.3639  -12.1392   37.9618 C   0  0  0  0  0  0  0  0  0  0  0  0
   30.8760  -12.2523   38.1181 C   0  0  0  0  0  0  0  0  0  0  0  0
   30.1783  -11.2040   37.4191 N   0  0  0  0  0  0  0  0  0  0  0  0
   28.8279  -11.0959   37.8547 C   0  0  0  0  0  0  0  0  0  0  0  0
   28.8006   -9.9577   38.8682 C   0  0  0  0  0  0  0  0  0  0  0  0
   29.8501   -9.0319   38.3521 C   0  0  0  0  0  0  0  0  0  0  0  0
   30.8220   -9.9336   37.6578 C   0  0  0  0  0  0  0  0  0  0  0  0
 19 20  1  0  0  0
 20  1  1  0  0  0
  1  2  2  0  0  0
  2  3  1  0  0  0
  3  4  2  0  0  0
  4 21  1  0  0  0
 21 23  1  0  0  0
 23 24  1  0  0  0
 24 25  1  0  0  0
 25 26  1  0  0  0
 26 27  1  0  0  0
 27 28  1  0  0  0
 26 29  1  0  0  0
 29 30  1  0  0  0
 30 31  1  0  0  0
  4  5  1  0  0  0
  5  6  2  0  0  0
  6  7  1  0  0  0
  7  8  2  0  0  0
  8  9  1  0  0  0
  9 10  2  0  0  0
 10 32  1  0  0  0
 32 33  1  0  0  0
 33 34  1  0  0  0
 34 35  1  0  0  0
 35 36  1  0  0  0
 36 37  1  0  0  0
 37 38  1  0  0  0
 38 39  1  0  0  0
 39 40  1  0  0  0
  6 11  1  0  0  0
 11 12  1  0  0  0
 12 13  1  0  0  0
 13 14  1  0  0  0
 14 15  2  0  0  0
 14 16  2  0  0  0
 14 17  1  0  0  0
 17 18  1  0  0  0
 10  1  1  0  0  0
 40 36  1  0  0  0
 18 11  1  0  0  0
  8  3  1  0  0  0
 28 23  1  0  0  0
 31 29  1  0  0  0
 21 22  1  0  0  0
M  END
> <minimizedAffinity>
-8.57928

> <CNNscore>
0.4985359907

> <CNNaffinity>
7.0677499771

> <CNN_VS>
3.5235276222

> <CNNaffinity_variance>
0.0538411550

$$$$
[H]c1c(OC([H])([H])C([H])([H])C([H])([H])N2C([H])([H])C([H])([H])C([H])([H])C2([H])[H])c(OC([H])([H])[H])c([H])c2c(N([H])C3([H])C([H])([H])C([H])([H])N(C4([H])C([H])([H])C4([H])[H])C([H])([H])C3([H])[H])nc(N3C([H])([H])C([H])([H])S(=O)(=O)C([H])([H])C3([H])[H])nc12


 40 45  0  0  0  0  0  0  0  0999 V2000
   36.1247  -14.3251   36.7875 C   0  0  0  0  0  0  0  0  0  0  0  0
   36.7660  -15.5666   36.7655 C   0  0  0  0  0  0  0  0  0  0  0  0
   36.1120  -16.7006   36.3597 C   0  0  0  0  0  0  0  0  0  0  0  0
   36.6930  -17.9517   36.3188 C   0  0  0  0  0  0  0  0  0  0  0  0
   35.9848  -19.0200   35.9096 N   0  0  0  0  0  0  0  0  0  0  0  0
   34.7038  -18.9016   35.5320 C   0  0  0  0  0  0  0  0  0  0  0  0
   34.1448  -17.6901   35.5727 N   0  0  0  0  0  0  0  0  0  0  0  0
   34.7791  -16.5948   35.9640 C   0  0  0  0  0  0  0  0  0  0  0  0
   34.1719  -15.3509   35.9970 C   0  0  0  0  0  0  0  0  0  0  0  0
   34.8127  -14.2110   36.3998 C   0  0  0  0  0  0  0  0  0  0  0  0
   33.9565  -20.0578   35.0947 N   0  0  0  0  0  0  0  0  0  0  0  0
   33.4480  -20.0852   33.7617 C   0  0  0  0  0  0  0  0  0  0  0  0
   31.9379  -20.0195   33.7073 C   0  0  0  0  0  0  0  0  0  0  0  0
   31.2893  -20.6115   35.2469 S   0  0  0  0  0  0  0  0  0  0  0  0
   31.2303  -19.5120   36.2775 O   0  0  0  0  0  0  0  0  0  0  0  0
   29.9270  -21.2323   35.0698 O   0  0  0  0  0  0  0  0  0  0  0  0
   32.4536  -21.8359   35.8618 C   0  0  0  0  0  0  0  0  0  0  0  0
   33.7693  -21.1183   36.0405 C   0  0  0  0  0  0  0  0  0  0  0  0
   38.2105  -13.2043   37.4282 C   0  0  0  0  0  0  0  0  0  0  0  0
   36.8066  -13.1928   37.2016 O   0  0  0  0  0  0  0  0  0  0  0  0
   38.0670  -18.0934   36.7075 N   0  0  0  0  0  0  0  0  0  0  0  0
   38.6072  -17.3835   37.2005 H   0  0  0  0  0  0  0  0  0  0  0  0
   38.7784  -19.3397   36.3871 C   0  0  0  0  0  0  0  0  0  0  0  0
   40.1423  -19.0052   35.8272 C   0  0  0  0  0  0  0  0  0  0  0  0
   41.0372  -20.2172   35.8506 C   0  0  0  0  0  0  0  0  0  0  0  0
   41.3073  -20.7027   37.1613 N   0  0  0  0  0  0  0  0  0  0  0  0
   40.2868  -20.3779   38.1280 C   0  0  0  0  0  0  0  0  0  0  0  0
   38.9067  -20.2435   37.5923 C   0  0  0  0  0  0  0  0  0  0  0  0
   42.5933  -20.3674   37.6989 C   0  0  0  0  0  0  0  0  0  0  0  0
   42.8637  -19.0425   38.3117 C   0  0  0  0  0  0  0  0  0  0  0  0
   42.9127  -20.3424   39.1252 C   0  0  0  0  0  0  0  0  0  0  0  0
   34.1224  -13.0230   36.3970 O   0  0  0  0  0  0  0  0  0  0  0  0
   32.9200  -12.8576   37.1173 C   0  0  0  0  0  0  0  0  0  0  0  0
   32.8099  -11.4576   37.6909 C   0  0  0  0  0  0  0  0  0  0  0  0
   33.9724  -10.6428   37.2057 C   0  0  0  0  0  0  0  0  0  0  0  0
   33.7849   -9.2357   37.4492 N   0  0  0  0  0  0  0  0  0  0  0  0
   34.5708   -8.4442   36.5655 C   0  0  0  0  0  0  0  0  0  0  0  0
   33.6377   -8.0156   35.4390 C   0  0  0  0  0  0  0  0  0  0  0  0
   32.3232   -7.8850   36.1318 C   0  0  0  0  0  0  0  0  0  0  0  0
   32.4004   -8.8771   37.2497 C   0  0  0  0  0  0  0  0  0  0  0  0
 19 20  1  0  0  0
 20  1  1  0  0  0
  1  2  2  0  0  0
  2  3  1  0  0  0
  3  4  2  0  0  0
  4 21  1  0  0  0
 21 23  1  0  0  0
 23 24  1  0  0  0
 24 25  1  0  0  0
 25 26  1  0  0  0
 26 27  1  0  0  0
 27 28  1  0  0  0
 26 29  1  0  0  0
 29 30  1  0  0  0
 30 31  1  0  0  0
  4  5  1  0  0  0
  5  6  2  0  0  0
  6  7  1  0  0  0
  7  8  2  0  0  0
  8  9  1  0  0  0
  9 10  2  0  0  0
 10 32  1  0  0  0
 32 33  1  0  0  0
 33 34  1  0  0  0
 34 35  1  0  0  0
 35 36  1  0  0  0
 36 37  1  0  0  0
 37 38  1  0  0  0
 38 39  1  0  0  0
 39 40  1  0  0  0
  6 11  1  0  0  0
 11 12  1  0  0  0
 12 13  1  0  0  0
 13 14  1  0  0  0
 14 15  2  0  0  0
 14 16  2  0  0  0
 14 17  1  0  0  0
 17 18  1  0  0  0
 10  1  1  0  0  0
 40 36  1  0  0  0
 18 11  1  0  0  0
  8  3  1  0  0  0
 28 23  1  0  0  0
 31 29  1  0  0  0
 21 22  1  0  0  0
M  END
> <minimizedAffinity>
-7.58188

> <CNNscore>
0.4912413359

> <CNNaffinity>
7.0906119347

> <CNN_VS>
3.4832017422

> <CNNaffinity_variance>
0.0382096320

$$$$
[H]c1c(OC([H])([H])C([H])([H])C([H])([H])N2C([H])([H])C([H])([H])C([H])([H])C2([H])[H])c(OC([H])([H])[H])c([H])c2c(N([H])C3([H])C([H])([H])C([H])([H])N(C4([H])C([H])([H])C4([H])[H])C([H])([H])C3([H])[H])nc(N3C([H])([H])C([H])([H])S(=O)(=O)C([H])([H])C3([H])[H])nc12


 40 45  0  0  0  0  0  0  0  0999 V2000
   36.4604  -15.6242   36.7516 C   0  0  0  0  0  0  0  0  0  0  0  0
   36.6184  -17.0010   36.5712 C   0  0  0  0  0  0  0  0  0  0  0  0
   35.5982  -17.7793   36.0897 C   0  0  0  0  0  0  0  0  0  0  0  0
   35.6961  -19.1418   35.8928 C   0  0  0  0  0  0  0  0  0  0  0  0
   34.6487  -19.8395   35.4173 N   0  0  0  0  0  0  0  0  0  0  0  0
   33.4879  -19.2367   35.1226 C   0  0  0  0  0  0  0  0  0  0  0  0
   33.3966  -17.9188   35.3141 N   0  0  0  0  0  0  0  0  0  0  0  0
   34.3843  -17.1678   35.7784 C   0  0  0  0  0  0  0  0  0  0  0  0
   34.2593  -15.8021   35.9682 C   0  0  0  0  0  0  0  0  0  0  0  0
   35.2691  -15.0132   36.4481 C   0  0  0  0  0  0  0  0  0  0  0  0
   32.3723  -19.9992   34.6124 N   0  0  0  0  0  0  0  0  0  0  0  0
   31.1776  -19.3104   34.2456 C   0  0  0  0  0  0  0  0  0  0  0  0
   30.0129  -19.6276   35.1570 C   0  0  0  0  0  0  0  0  0  0  0  0
   30.2995  -21.2040   35.9147 S   0  0  0  0  0  0  0  0  0  0  0  0
   31.1447  -21.0712   37.1567 O   0  0  0  0  0  0  0  0  0  0  0  0
   29.0045  -21.9042   36.2392 O   0  0  0  0  0  0  0  0  0  0  0  0
   31.2530  -22.1764   34.7408 C   0  0  0  0  0  0  0  0  0  0  0  0
   32.5374  -21.4191   34.5067 C   0  0  0  0  0  0  0  0  0  0  0  0
   37.3996  -13.4470   37.3799 C   0  0  0  0  0  0  0  0  0  0  0  0
   37.5061  -14.8582   37.2397 O   0  0  0  0  0  0  0  0  0  0  0  0
   36.9357  -19.8002   36.1912 N   0  0  0  0  0  0  0  0  0  0  0  0
   37.6521  -20.0287   35.5033 H   0  0  0  0  0  0  0  0  0  0  0  0
   37.2260  -20.1878   37.5794 C   0  0  0  0  0  0  0  0  0  0  0  0
   36.5728  -21.5195   37.8722 C   0  0  0  0  0  0  0  0  0  0  0  0
   37.1519  -22.1313   39.1214 C   0  0  0  0  0  0  0  0  0  0  0  0
   38.5383  -22.4377   39.0176 N   0  0  0  0  0  0  0  0  0  0  0  0
   39.2473  -21.6263   38.0583 C   0  0  0  0  0  0  0  0  0  0  0  0
   38.7122  -20.2553   37.8488 C   0  0  0  0  0  0  0  0  0  0  0  0
   38.8582  -23.8181   38.7992 C   0  0  0  0  0  0  0  0  0  0  0  0
   39.1013  -24.3588   37.4382 C   0  0  0  0  0  0  0  0  0  0  0  0
   40.2000  -24.3202   38.5084 C   0  0  0  0  0  0  0  0  0  0  0  0
   35.0460  -13.6662   36.6011 O   0  0  0  0  0  0  0  0  0  0  0  0
   33.7426  -13.1303   36.6787 C   0  0  0  0  0  0  0  0  0  0  0  0
   33.7147  -11.8706   37.5234 C   0  0  0  0  0  0  0  0  0  0  0  0
   34.3599  -10.7566   36.7529 C   0  0  0  0  0  0  0  0  0  0  0  0
   34.0774   -9.4672   37.3290 N   0  0  0  0  0  0  0  0  0  0  0  0
   34.5342   -8.4107   36.4922 C   0  0  0  0  0  0  0  0  0  0  0  0
   33.3165   -7.9363   35.7076 C   0  0  0  0  0  0  0  0  0  0  0  0
   32.1997   -8.1479   36.6734 C   0  0  0  0  0  0  0  0  0  0  0  0
   32.6538   -9.3040   37.5082 C   0  0  0  0  0  0  0  0  0  0  0  0
 19 20  1  0  0  0
 20  1  1  0  0  0
  1  2  2  0  0  0
  2  3  1  0  0  0
  3  4  2  0  0  0
  4 21  1  0  0  0
 21 23  1  0  0  0
 23 24  1  0  0  0
 24 25  1  0  0  0
 25 26  1  0  0  0
 26 27  1  0  0  0
 27 28  1  0  0  0
 26 29  1  0  0  0
 29 30  1  0  0  0
 30 31  1  0  0  0
  4  5  1  0  0  0
  5  6  2  0  0  0
  6  7  1  0  0  0
  7  8  2  0  0  0
  8  9  1  0  0  0
  9 10  2  0  0  0
 10 32  1  0  0  0
 32 33  1  0  0  0
 33 34  1  0  0  0
 34 35  1  0  0  0
 35 36  1  0  0  0
 36 37  1  0  0  0
 37 38  1  0  0  0
 38 39  1  0  0  0
 39 40  1  0  0  0
  6 11  1  0  0  0
 11 12  1  0  0  0
 12 13  1  0  0  0
 13 14  1  0  0  0
 14 15  2  0  0  0
 14 16  2  0  0  0
 14 17  1  0  0  0
 17 18  1  0  0  0
 10  1  1  0  0  0
 40 36  1  0  0  0
 18 11  1  0  0  0
  8  3  1  0  0  0
 28 23  1  0  0  0
 31 29  1  0  0  0
 21 22  1  0  0  0
M  END
> <minimizedAffinity>
-7.05283

> <CNNscore>
0.4080893397

> <CNNaffinity>
6.6346120834

> <CNN_VS>
2.7075145245

> <CNNaffinity_variance>
0.0987706855

$$$$
[H]c1c(OC([H])([H])C([H])([H])C([H])([H])N2C([H])([H])C([H])([H])C([H])([H])C2([H])[H])c(OC([H])([H])[H])c([H])c2c(N([H])C3([H])C([H])([H])C([H])([H])N(C4([H])C([H])([H])C4([H])[H])C([H])([H])C3([H])[H])nc(N3C([H])([H])C([H])([H])S(=O)(=O)C([H])([H])C3([H])[H])nc12


 40 45  0  0  0  0  0  0  0  0999 V2000
   39.2086  -21.3679   37.4828 C   0  0  0  0  0  0  0  0  0  0  0  0
   37.8469  -21.3334   37.1701 C   0  0  0  0  0  0  0  0  0  0  0  0
   37.2325  -20.1704   36.7850 C   0  0  0  0  0  0  0  0  0  0  0  0
   35.8930  -20.0762   36.4662 C   0  0  0  0  0  0  0  0  0  0  0  0
   35.3606  -18.8969   36.0976 N   0  0  0  0  0  0  0  0  0  0  0  0
   36.1096  -17.7870   36.0293 C   0  0  0  0  0  0  0  0  0  0  0  0
   37.4048  -17.8815   36.3383 N   0  0  0  0  0  0  0  0  0  0  0  0
   37.9973  -19.0069   36.7091 C   0  0  0  0  0  0  0  0  0  0  0  0
   39.3436  -19.0738   37.0251 C   0  0  0  0  0  0  0  0  0  0  0  0
   39.9698  -20.2277   37.4110 C   0  0  0  0  0  0  0  0  0  0  0  0
   35.5236  -16.5281   35.6316 N   0  0  0  0  0  0  0  0  0  0  0  0
   36.3593  -15.5380   35.0337 C   0  0  0  0  0  0  0  0  0  0  0  0
   36.5459  -14.3193   35.9100 C   0  0  0  0  0  0  0  0  0  0  0  0
   35.1749  -14.2103   37.0280 S   0  0  0  0  0  0  0  0  0  0  0  0
   35.4044  -15.0463   38.2621 O   0  0  0  0  0  0  0  0  0  0  0  0
   34.8893  -12.7812   37.4135 O   0  0  0  0  0  0  0  0  0  0  0  0
   33.7574  -14.9187   36.1786 C   0  0  0  0  0  0  0  0  0  0  0  0
   34.1210  -16.3500   35.8669 C   0  0  0  0  0  0  0  0  0  0  0  0
   40.2976  -23.4923   36.9184 C   0  0  0  0  0  0  0  0  0  0  0  0
   39.8076  -22.5555   37.8696 O   0  0  0  0  0  0  0  0  0  0  0  0
   35.0802  -21.2575   36.5219 N   0  0  0  0  0  0  0  0  0  0  0  0
   35.2998  -22.1360   36.0543 H   0  0  0  0  0  0  0  0  0  0  0  0
   33.8333  -21.2342   37.3006 C   0  0  0  0  0  0  0  0  0  0  0  0
   33.2155  -22.6141   37.2938 C   0  0  0  0  0  0  0  0  0  0  0  0
   32.1723  -22.7337   38.3743 C   0  0  0  0  0  0  0  0  0  0  0  0
   32.6946  -22.5915   39.6910 N   0  0  0  0  0  0  0  0  0  0  0  0
   33.9069  -21.8123   39.7592 C   0  0  0  0  0  0  0  0  0  0  0  0
   34.0607  -20.7618   38.7187 C   0  0  0  0  0  0  0  0  0  0  0  0
   32.8715  -23.8087   40.4276 C   0  0  0  0  0  0  0  0  0  0  0  0
   33.9654  -24.7616   40.1127 C   0  0  0  0  0  0  0  0  0  0  0  0
   33.8947  -24.0149   41.4511 C   0  0  0  0  0  0  0  0  0  0  0  0
   41.3116  -20.1909   37.7041 O   0  0  0  0  0  0  0  0  0  0  0  0
   41.8741  -19.1667   38.4957 C   0  0  0  0  0  0  0  0  0  0  0  0
   43.3818  -19.1131   38.3367 C   0  0  0  0  0  0  0  0  0  0  0  0
   43.7063  -18.7470   36.9185 C   0  0  0  0  0  0  0  0  0  0  0  0
   43.0595  -17.5252   36.5146 N   0  0  0  0  0  0  0  0  0  0  0  0
   43.6698  -16.3887   37.1155 C   0  0  0  0  0  0  0  0  0  0  0  0
   44.6215  -15.8180   36.0705 C   0  0  0  0  0  0  0  0  0  0  0  0
   43.9228  -16.1216   34.7881 C   0  0  0  0  0  0  0  0  0  0  0  0
   43.1466  -17.3669   35.0819 C   0  0  0  0  0  0  0  0  0  0  0  0
 19 20  1  0  0  0
 20  1  1  0  0  0
  1  2  2  0  0  0
  2  3  1  0  0  0
  3  4  2  0  0  0
  4 21  1  0  0  0
 21 23  1  0  0  0
 23 24  1  0  0  0
 24 25  1  0  0  0
 25 26  1  0  0  0
 26 27  1  0  0  0
 27 28  1  0  0  0
 26 29  1  0  0  0
 29 30  1  0  0  0
 30 31  1  0  0  0
  4  5  1  0  0  0
  5  6  2  0  0  0
  6  7  1  0  0  0
  7  8  2  0  0  0
  8  9  1  0  0  0
  9 10  2  0  0  0
 10 32  1  0  0  0
 32 33  1  0  0  0
 33 34  1  0  0  0
 34 35  1  0  0  0
 35 36  1  0  0  0
 36 37  1  0  0  0
 37 38  1  0  0  0
 38 39  1  0  0  0
 39 40  1  0  0  0
  6 11  1  0  0  0
 11 12  1  0  0  0
 12 13  1  0  0  0
 13 14  1  0  0  0
 14 15  2  0  0  0
 14 16  2  0  0  0
 14 17  1  0  0  0
 17 18  1  0  0  0
 10  1  1  0  0  0
 40 36  1  0  0  0
 18 11  1  0  0  0
  8  3  1  0  0  0
 28 23  1  0  0  0
 31 29  1  0  0  0
 21 22  1  0  0  0
M  END
> <minimizedAffinity>
-4.55703

> <CNNscore>
0.2771861255

> <CNNaffinity>
5.9735975266

> <CNN_VS>
1.6557983160

> <CNNaffinity_variance>
0.0582775362

$$$$
[H]c1c(OC([H])([H])C([H])([H])C([H])([H])N2C([H])([H])C([H])([H])C([H])([H])C2([H])[H])c(OC([H])([H])[H])c([H])c2c(N([H])C3([H])C([H])([H])C([H])([H])N(C4([H])C([H])([H])C4([H])[H])C([H])([H])C3([H])[H])nc(N3C([H])([H])C([H])([H])S(=O)(=O)C([H])([H])C3([H])[H])nc12


 40 45  0  0  0  0  0  0  0  0999 V2000
   38.0004  -20.7687   37.2404 C   0  0  0  0  0  0  0  0  0  0  0  0
   36.6410  -20.4558   37.1550 C   0  0  0  0  0  0  0  0  0  0  0  0
   36.2184  -19.1983   36.8108 C   0  0  0  0  0  0  0  0  0  0  0  0
   34.8915  -18.8318   36.7124 C   0  0  0  0  0  0  0  0  0  0  0  0
   34.5541  -17.5753   36.3700 N   0  0  0  0  0  0  0  0  0  0  0  0
   35.4896  -16.6490   36.1159 C   0  0  0  0  0  0  0  0  0  0  0  0
   36.7721  -17.0067   36.2120 N   0  0  0  0  0  0  0  0  0  0  0  0
   37.1787  -18.2231   36.5436 C   0  0  0  0  0  0  0  0  0  0  0  0
   38.5173  -18.5644   36.6366 C   0  0  0  0  0  0  0  0  0  0  0  0
   38.9532  -19.8154   36.9792 C   0  0  0  0  0  0  0  0  0  0  0  0
   35.1118  -15.3040   35.7491 N   0  0  0  0  0  0  0  0  0  0  0  0
   36.1330  -14.3187   35.5988 C   0  0  0  0  0  0  0  0  0  0  0  0
   36.0745  -13.2448   36.6624 C   0  0  0  0  0  0  0  0  0  0  0  0
   34.4220  -13.1668   37.2984 S   0  0  0  0  0  0  0  0  0  0  0  0
   34.2097  -14.1729   38.4017 O   0  0  0  0  0  0  0  0  0  0  0  0
   34.0828  -11.7811   37.7857 O   0  0  0  0  0  0  0  0  0  0  0  0
   33.3269  -13.6360   35.9517 C   0  0  0  0  0  0  0  0  0  0  0  0
   33.7161  -15.0401   35.5578 C   0  0  0  0  0  0  0  0  0  0  0  0
   38.4836  -22.4620   38.9480 C   0  0  0  0  0  0  0  0  0  0  0  0
   38.4033  -22.0469   37.5902 O   0  0  0  0  0  0  0  0  0  0  0  0
   33.8779  -19.8147   36.9686 N   0  0  0  0  0  0  0  0  0  0  0  0
   33.5669  -20.0999   37.8963 H   0  0  0  0  0  0  0  0  0  0  0  0
   33.2194  -20.4787   35.8340 C   0  0  0  0  0  0  0  0  0  0  0  0
   32.9798  -21.9315   36.1773 C   0  0  0  0  0  0  0  0  0  0  0  0
   31.9813  -22.5431   35.2290 C   0  0  0  0  0  0  0  0  0  0  0  0
   30.6890  -21.9499   35.2994 N   0  0  0  0  0  0  0  0  0  0  0  0
   30.6958  -20.5848   35.7661 C   0  0  0  0  0  0  0  0  0  0  0  0
   31.9210  -19.8013   35.4582 C   0  0  0  0  0  0  0  0  0  0  0  0
   29.6992  -22.6932   36.0227 C   0  0  0  0  0  0  0  0  0  0  0  0
   28.7146  -22.0262   36.9112 C   0  0  0  0  0  0  0  0  0  0  0  0
   28.2899  -22.7801   35.6443 C   0  0  0  0  0  0  0  0  0  0  0  0
   40.3045  -20.0548   37.0444 O   0  0  0  0  0  0  0  0  0  0  0  0
   41.1126  -19.4964   38.0579 C   0  0  0  0  0  0  0  0  0  0  0  0
   42.5716  -19.8636   37.8636 C   0  0  0  0  0  0  0  0  0  0  0  0
   43.0697  -19.2181   36.6042 C   0  0  0  0  0  0  0  0  0  0  0  0
   42.7109  -17.8251   36.5329 N   0  0  0  0  0  0  0  0  0  0  0  0
   43.6226  -17.0136   37.2646 C   0  0  0  0  0  0  0  0  0  0  0  0
   44.6031  -16.4518   36.2416 C   0  0  0  0  0  0  0  0  0  0  0  0
   43.7572  -16.3021   35.0223 C   0  0  0  0  0  0  0  0  0  0  0  0
   42.7258  -17.3778   35.1600 C   0  0  0  0  0  0  0  0  0  0  0  0
 19 20  1  0  0  0
 20  1  1  0  0  0
  1  2  2  0  0  0
  2  3  1  0  0  0
  3  4  2  0  0  0
  4 21  1  0  0  0
 21 23  1  0  0  0
 23 24  1  0  0  0
 24 25  1  0  0  0
 25 26  1  0  0  0
 26 27  1  0  0  0
 27 28  1  0  0  0
 26 29  1  0  0  0
 29 30  1  0  0  0
 30 31  1  0  0  0
  4  5  1  0  0  0
  5  6  2  0  0  0
  6  7  1  0  0  0
  7  8  2  0  0  0
  8  9  1  0  0  0
  9 10  2  0  0  0
 10 32  1  0  0  0
 32 33  1  0  0  0
 33 34  1  0  0  0
 34 35  1  0  0  0
 35 36  1  0  0  0
 36 37  1  0  0  0
 37 38  1  0  0  0
 38 39  1  0  0  0
 39 40  1  0  0  0
  6 11  1  0  0  0
 11 12  1  0  0  0
 12 13  1  0  0  0
 13 14  1  0  0  0
 14 15  2  0  0  0
 14 16  2  0  0  0
 14 17  1  0  0  0
 17 18  1  0  0  0
 10  1  1  0  0  0
 40 36  1  0  0  0
 18 11  1  0  0  0
  8  3  1  0  0  0
 28 23  1  0  0  0
 31 29  1  0  0  0
 21 22  1  0  0  0
M  END
> <minimizedAffinity>
-6.02188

> <CNNscore>
0.2559793591

> <CNNaffinity>
6.2285819054

> <CNN_VS>
1.5943883657

> <CNNaffinity_variance>
0.0757111460

$$$$
[H]c1c(-c2nn(C([H])([H])[H])c([H])c2[H])nc2c([H])c(OC([H])([H])C([H])([H])C([H])([H])N3C([H])([H])C([H])([H])C([H])([H])C3([H])[H])c(OC([H])([H])[H])c([H])c2c1N([H])C1([H])C([H])([H])C([H])([H])N(C([H])([H])[H])C([H])([H])C1([H])[H]


 36 40  0  0  0  0  0  0  0  0999 V2000
   36.0464  -13.8564   36.6340 C   0  0  0  0  0  0  0  0  0  0  0  0
   36.5525  -15.1184   36.2974 C   0  0  0  0  0  0  0  0  0  0  0  0
   35.6968  -16.1598   36.0070 C   0  0  0  0  0  0  0  0  0  0  0  0
   36.1426  -17.4179   35.6704 C   0  0  0  0  0  0  0  0  0  0  0  0
   35.1736  -18.3816   35.3994 C   0  0  0  0  0  0  0  0  0  0  0  0
   33.8228  -18.1027   35.4613 C   0  0  0  0  0  0  0  0  0  0  0  0
   33.4297  -16.8640   35.7932 N   0  0  0  0  0  0  0  0  0  0  0  0
   34.3209  -15.8829   36.0683 C   0  0  0  0  0  0  0  0  0  0  0  0
   33.8523  -14.6262   36.4039 C   0  0  0  0  0  0  0  0  0  0  0  0
   34.7008  -13.5868   36.6940 C   0  0  0  0  0  0  0  0  0  0  0  0
   32.8186  -19.1320   35.1737 C   0  0  0  0  0  0  0  0  0  0  0  0
   32.9807  -20.2032   34.3234 C   0  0  0  0  0  0  0  0  0  0  0  0
   31.8338  -20.9525   34.3036 C   0  0  0  0  0  0  0  0  0  0  0  0
   30.9816  -20.3251   35.1468 N   0  0  0  0  0  0  0  0  0  0  0  0
   29.6351  -20.8271   35.3967 C   0  0  0  0  0  0  0  0  0  0  0  0
   31.5711  -19.2429   35.6623 N   0  0  0  0  0  0  0  0  0  0  0  0
   38.2441  -13.1432   37.4637 C   0  0  0  0  0  0  0  0  0  0  0  0
   36.9813  -12.8710   36.9101 O   0  0  0  0  0  0  0  0  0  0  0  0
   37.5109  -17.7090   35.6259 N   0  0  0  0  0  0  0  0  0  0  0  0
   38.1923  -17.0785   36.0949 H   0  0  0  0  0  0  0  0  0  0  0  0
   38.0304  -18.9066   34.9256 C   0  0  0  0  0  0  0  0  0  0  0  0
   38.6340  -18.4915   33.6288 C   0  0  0  0  0  0  0  0  0  0  0  0
   40.1033  -18.8277   33.5118 C   0  0  0  0  0  0  0  0  0  0  0  0
   40.1968  -20.2341   33.9223 N   0  0  0  0  0  0  0  0  0  0  0  0
   41.3129  -20.9165   33.3539 C   0  0  0  0  0  0  0  0  0  0  0  0
   40.1587  -20.2237   35.3484 C   0  0  0  0  0  0  0  0  0  0  0  0
   38.8891  -19.6526   35.8572 C   0  0  0  0  0  0  0  0  0  0  0  0
   34.2274  -12.3214   37.0331 O   0  0  0  0  0  0  0  0  0  0  0  0
   33.3535  -12.1160   38.1239 C   0  0  0  0  0  0  0  0  0  0  0  0
   31.9875  -11.8013   37.5495 C   0  0  0  0  0  0  0  0  0  0  0  0
   30.8741  -12.3312   38.3924 C   0  0  0  0  0  0  0  0  0  0  0  0
   29.5614  -11.9979   37.9127 N   0  0  0  0  0  0  0  0  0  0  0  0
   28.5821  -12.3886   38.9093 C   0  0  0  0  0  0  0  0  0  0  0  0
   28.6250  -11.2343   39.8770 C   0  0  0  0  0  0  0  0  0  0  0  0
   28.7855  -10.0393   38.9922 C   0  0  0  0  0  0  0  0  0  0  0  0
   29.3449  -10.5950   37.7037 C   0  0  0  0  0  0  0  0  0  0  0  0
 17 18  1  0  0  0
 18  1  1  0  0  0
  1  2  2  0  0  0
  2  3  1  0  0  0
  3  4  2  0  0  0
  4 19  1  0  0  0
 19 21  1  0  0  0
 21 22  1  0  0  0
 22 23  1  0  0  0
 23 24  1  0  0  0
 24 25  1  0  0  0
 24 26  1  0  0  0
 26 27  1  0  0  0
  4  5  1  0  0  0
  5  6  2  0  0  0
  6  7  1  0  0  0
  7  8  2  0  0  0
  8  9  1  0  0  0
  9 10  2  0  0  0
 10 28  1  0  0  0
 28 29  1  0  0  0
 29 30  1  0  0  0
 30 31  1  0  0  0
 31 32  1  0  0  0
 32 33  1  0  0  0
 33 34  1  0  0  0
 34 35  1  0  0  0
 35 36  1  0  0  0
  6 11  1  0  0  0
 11 12  1  0  0  0
 12 13  2  0  0  0
 13 14  1  0  0  0
 14 15  1  0  0  0
 14 16  1  0  0  0
 10  1  1  0  0  0
 36 32  1  0  0  0
 16 11  2  0  0  0
  8  3  1  0  0  0
 27 21  1  0  0  0
 19 20  1  0  0  0
M  END
> <minimizedAffinity>
-8.59527

> <CNNscore>
0.8256460428

> <CNNaffinity>
7.3386101723

> <CNN_VS>
6.0590944290

> <CNNaffinity_variance>
0.0703706890

$$$$
[H]c1c(-c2nn(C([H])([H])[H])c([H])c2[H])nc2c([H])c(OC([H])([H])C([H])([H])C([H])([H])N3C([H])([H])C([H])([H])C([H])([H])C3([H])[H])c(OC([H])([H])[H])c([H])c2c1N([H])C1([H])C([H])([H])C([H])([H])N(C([H])([H])[H])C([H])([H])C1([H])[H]


 36 40  0  0  0  0  0  0  0  0999 V2000
   36.1195  -13.8804   36.7765 C   0  0  0  0  0  0  0  0  0  0  0  0
   36.5877  -15.1113   36.2991 C   0  0  0  0  0  0  0  0  0  0  0  0
   35.7028  -16.1182   35.9765 C   0  0  0  0  0  0  0  0  0  0  0  0
   36.1109  -17.3448   35.5035 C   0  0  0  0  0  0  0  0  0  0  0  0
   35.1151  -18.2752   35.2144 C   0  0  0  0  0  0  0  0  0  0  0  0
   33.7745  -17.9947   35.3890 C   0  0  0  0  0  0  0  0  0  0  0  0
   33.4185  -16.7874   35.8522 N   0  0  0  0  0  0  0  0  0  0  0  0
   34.3371  -15.8394   36.1521 C   0  0  0  0  0  0  0  0  0  0  0  0
   33.9062  -14.6140   36.6255 C   0  0  0  0  0  0  0  0  0  0  0  0
   34.7839  -13.6090   36.9481 C   0  0  0  0  0  0  0  0  0  0  0  0
   32.7417  -18.9889   35.0800 C   0  0  0  0  0  0  0  0  0  0  0  0
   32.8423  -19.9934   34.1432 C   0  0  0  0  0  0  0  0  0  0  0  0
   31.6855  -20.7275   34.1299 C   0  0  0  0  0  0  0  0  0  0  0  0
   30.8892  -20.1581   35.0641 N   0  0  0  0  0  0  0  0  0  0  0  0
   29.5514  -20.6643   35.3492 C   0  0  0  0  0  0  0  0  0  0  0  0
   31.5212  -19.1244   35.6270 N   0  0  0  0  0  0  0  0  0  0  0  0
   38.3783  -13.2559   37.5076 C   0  0  0  0  0  0  0  0  0  0  0  0
   37.0819  -12.9286   37.0748 O   0  0  0  0  0  0  0  0  0  0  0  0
   37.4699  -17.6391   35.3439 N   0  0  0  0  0  0  0  0  0  0  0  0
   38.0308  -17.1344   34.6281 H   0  0  0  0  0  0  0  0  0  0  0  0
   38.1494  -18.6588   36.1764 C   0  0  0  0  0  0  0  0  0  0  0  0
   37.2439  -19.0666   37.2864 C   0  0  0  0  0  0  0  0  0  0  0  0
   36.8934  -20.5372   37.2702 C   0  0  0  0  0  0  0  0  0  0  0  0
   38.1811  -21.2246   37.1134 N   0  0  0  0  0  0  0  0  0  0  0  0
   38.1848  -22.5477   37.6462 C   0  0  0  0  0  0  0  0  0  0  0  0
   38.5023  -21.1319   35.7265 C   0  0  0  0  0  0  0  0  0  0  0  0
   38.6481  -19.7223   35.2921 C   0  0  0  0  0  0  0  0  0  0  0  0
   34.3484  -12.3752   37.4260 O   0  0  0  0  0  0  0  0  0  0  0  0
   33.1996  -12.2496   38.2386 C   0  0  0  0  0  0  0  0  0  0  0  0
   32.2619  -11.2856   37.5413 C   0  0  0  0  0  0  0  0  0  0  0  0
   30.8463  -11.7623   37.5381 C   0  0  0  0  0  0  0  0  0  0  0  0
   30.1253  -11.4769   38.7476 N   0  0  0  0  0  0  0  0  0  0  0  0
   29.0728  -10.5223   38.4549 C   0  0  0  0  0  0  0  0  0  0  0  0
   27.9820  -11.4014   37.8998 C   0  0  0  0  0  0  0  0  0  0  0  0
   28.0602  -12.6339   38.7432 C   0  0  0  0  0  0  0  0  0  0  0  0
   29.4561  -12.6096   39.3202 C   0  0  0  0  0  0  0  0  0  0  0  0
 17 18  1  0  0  0
 18  1  1  0  0  0
  1  2  2  0  0  0
  2  3  1  0  0  0
  3  4  2  0  0  0
  4 19  1  0  0  0
 19 21  1  0  0  0
 21 22  1  0  0  0
 22 23  1  0  0  0
 23 24  1  0  0  0
 24 25  1  0  0  0
 24 26  1  0  0  0
 26 27  1  0  0  0
  4  5  1  0  0  0
  5  6  2  0  0  0
  6  7  1  0  0  0
  7  8  2  0  0  0
  8  9  1  0  0  0
  9 10  2  0  0  0
 10 28  1  0  0  0
 28 29  1  0  0  0
 29 30  1  0  0  0
 30 31  1  0  0  0
 31 32  1  0  0  0
 32 33  1  0  0  0
 33 34  1  0  0  0
 34 35  1  0  0  0
 35 36  1  0  0  0
  6 11  1  0  0  0
 11 12  1  0  0  0
 12 13  2  0  0  0
 13 14  1  0  0  0
 14 15  1  0  0  0
 14 16  1  0  0  0
 10  1  1  0  0  0
 36 32  1  0  0  0
 16 11  2  0  0  0
  8  3  1  0  0  0
 27 21  1  0  0  0
 19 20  1  0  0  0
M  END
> <minimizedAffinity>
-8.07959

> <CNNscore>
0.7248093486

> <CNNaffinity>
7.1565771103

> <CNN_VS>
5.1871538162

> <CNNaffinity_variance>
0.1962635219

$$$$
[H]c1c(-c2nn(C([H])([H])[H])c([H])c2[H])nc2c([H])c(OC([H])([H])C([H])([H])C([H])([H])N3C([H])([H])C([H])([H])C([H])([H])C3([H])[H])c(OC([H])([H])[H])c([H])c2c1N([H])C1([H])C([H])([H])C([H])([H])N(C([H])([H])[H])C([H])([H])C1([H])[H]


 36 40  0  0  0  0  0  0  0  0999 V2000
   36.0600  -14.3135   36.6433 C   0  0  0  0  0  0  0  0  0  0  0  0
   36.7334  -15.5412   36.6059 C   0  0  0  0  0  0  0  0  0  0  0  0
   36.0555  -16.7011   36.2955 C   0  0  0  0  0  0  0  0  0  0  0  0
   36.6700  -17.9318   36.2451 C   0  0  0  0  0  0  0  0  0  0  0  0
   35.8712  -19.0254   35.9183 C   0  0  0  0  0  0  0  0  0  0  0  0
   34.5221  -18.8970   35.6541 C   0  0  0  0  0  0  0  0  0  0  0  0
   33.9615  -17.6799   35.7140 N   0  0  0  0  0  0  0  0  0  0  0  0
   34.6824  -16.5774   36.0259 C   0  0  0  0  0  0  0  0  0  0  0  0
   34.0461  -15.3508   36.0708 C   0  0  0  0  0  0  0  0  0  0  0  0
   34.7172  -14.1938   36.3797 C   0  0  0  0  0  0  0  0  0  0  0  0
   33.6984  -20.0614   35.3135 C   0  0  0  0  0  0  0  0  0  0  0  0
   32.9695  -20.2243   34.1563 C   0  0  0  0  0  0  0  0  0  0  0  0
   32.3254  -21.4332   34.1848 C   0  0  0  0  0  0  0  0  0  0  0  0
   32.6712  -21.9956   35.3659 N   0  0  0  0  0  0  0  0  0  0  0  0
   32.1776  -23.3075   35.7692 C   0  0  0  0  0  0  0  0  0  0  0  0
   33.4881  -21.1765   36.0342 N   0  0  0  0  0  0  0  0  0  0  0  0
   38.1502  -13.2855   37.4185 C   0  0  0  0  0  0  0  0  0  0  0  0
   36.8227  -13.2017   36.9646 O   0  0  0  0  0  0  0  0  0  0  0  0
   38.0332  -18.0682   36.5314 N   0  0  0  0  0  0  0  0  0  0  0  0
   38.5297  -17.3256   37.0642 H   0  0  0  0  0  0  0  0  0  0  0  0
   38.8054  -19.2559   36.0982 C   0  0  0  0  0  0  0  0  0  0  0  0
   39.2535  -19.0614   34.6912 C   0  0  0  0  0  0  0  0  0  0  0  0
   40.7565  -19.0757   34.5289 C   0  0  0  0  0  0  0  0  0  0  0  0
   41.1978  -20.2715   35.2573 N   0  0  0  0  0  0  0  0  0  0  0  0
   42.4285  -20.8066   34.7739 C   0  0  0  0  0  0  0  0  0  0  0  0
   41.1996  -19.9053   36.6362 C   0  0  0  0  0  0  0  0  0  0  0  0
   39.8451  -19.5248   37.1024 C   0  0  0  0  0  0  0  0  0  0  0  0
   34.0747  -12.9587   36.4257 O   0  0  0  0  0  0  0  0  0  0  0  0
   32.6782  -12.8471   36.6081 C   0  0  0  0  0  0  0  0  0  0  0  0
   32.4156  -12.9082   38.0988 C   0  0  0  0  0  0  0  0  0  0  0  0
   31.2155  -12.1166   38.5036 C   0  0  0  0  0  0  0  0  0  0  0  0
   30.6301  -11.3479   37.4401 N   0  0  0  0  0  0  0  0  0  0  0  0
   29.1865  -11.3687   37.5830 C   0  0  0  0  0  0  0  0  0  0  0  0
   28.9468  -10.2984   38.6162 C   0  0  0  0  0  0  0  0  0  0  0  0
   29.9394   -9.2378   38.2609 C   0  0  0  0  0  0  0  0  0  0  0  0
   30.9879   -9.9585   37.4464 C   0  0  0  0  0  0  0  0  0  0  0  0
 17 18  1  0  0  0
 18  1  1  0  0  0
  1  2  2  0  0  0
  2  3  1  0  0  0
  3  4  2  0  0  0
  4 19  1  0  0  0
 19 21  1  0  0  0
 21 22  1  0  0  0
 22 23  1  0  0  0
 23 24  1  0  0  0
 24 25  1  0  0  0
 24 26  1  0  0  0
 26 27  1  0  0  0
  4  5  1  0  0  0
  5  6  2  0  0  0
  6  7  1  0  0  0
  7  8  2  0  0  0
  8  9  1  0  0  0
  9 10  2  0  0  0
 10 28  1  0  0  0
 28 29  1  0  0  0
 29 30  1  0  0  0
 30 31  1  0  0  0
 31 32  1  0  0  0
 32 33  1  0  0  0
 33 34  1  0  0  0
 34 35  1  0  0  0
 35 36  1  0  0  0
  6 11  1  0  0  0
 11 12  1  0  0  0
 12 13  2  0  0  0
 13 14  1  0  0  0
 14 15  1  0  0  0
 14 16  1  0  0  0
 10  1  1  0  0  0
 36 32  1  0  0  0
 16 11  2  0  0  0
  8  3  1  0  0  0
 27 21  1  0  0  0
 19 20  1  0  0  0
M  END
> <minimizedAffinity>
-8.13909

> <CNNscore>
0.5447856188

> <CNNaffinity>
6.7582054138

> <CNN_VS>
3.6817731857

> <CNNaffinity_variance>
0.0644539893

$$$$
[H]c1c(-c2nn(C([H])([H])[H])c([H])c2[H])nc2c([H])c(OC([H])([H])C([H])([H])C([H])([H])N3C([H])([H])C([H])([H])C([H])([H])C3([H])[H])c(OC([H])([H])[H])c([H])c2c1N([H])C1([H])C([H])([H])C([H])([H])N(C([H])([H])[H])C([H])([H])C1([H])[H]


 36 40  0  0  0  0  0  0  0  0999 V2000
   35.9981  -14.3858   36.1898 C   0  0  0  0  0  0  0  0  0  0  0  0
   36.4478  -15.6835   35.9141 C   0  0  0  0  0  0  0  0  0  0  0  0
   35.5480  -16.7163   35.7564 C   0  0  0  0  0  0  0  0  0  0  0  0
   35.9377  -18.0082   35.4844 C   0  0  0  0  0  0  0  0  0  0  0  0
   34.9282  -18.9585   35.3476 C   0  0  0  0  0  0  0  0  0  0  0  0
   33.5922  -18.6348   35.4761 C   0  0  0  0  0  0  0  0  0  0  0  0
   33.2543  -17.3641   35.7414 N   0  0  0  0  0  0  0  0  0  0  0  0
   34.1869  -16.3937   35.8861 C   0  0  0  0  0  0  0  0  0  0  0  0
   33.7744  -15.1026   36.1586 C   0  0  0  0  0  0  0  0  0  0  0  0
   34.6669  -14.0716   36.3167 C   0  0  0  0  0  0  0  0  0  0  0  0
   32.5448  -19.6507   35.3299 C   0  0  0  0  0  0  0  0  0  0  0  0
   32.7359  -20.9571   34.9380 C   0  0  0  0  0  0  0  0  0  0  0  0
   31.5322  -21.6109   34.9138 C   0  0  0  0  0  0  0  0  0  0  0  0
   30.6165  -20.6897   35.2932 N   0  0  0  0  0  0  0  0  0  0  0  0
   29.1967  -21.0087   35.3911 C   0  0  0  0  0  0  0  0  0  0  0  0
   31.2229  -19.5251   35.5398 N   0  0  0  0  0  0  0  0  0  0  0  0
   37.8553  -13.3617   37.4262 C   0  0  0  0  0  0  0  0  0  0  0  0
   36.9745  -13.4124   36.3322 O   0  0  0  0  0  0  0  0  0  0  0  0
   37.2920  -18.3434   35.3730 N   0  0  0  0  0  0  0  0  0  0  0  0
   37.7495  -18.3561   34.4390 H   0  0  0  0  0  0  0  0  0  0  0  0
   38.1112  -18.6822   36.5599 C   0  0  0  0  0  0  0  0  0  0  0  0
   37.4006  -19.7130   37.3666 C   0  0  0  0  0  0  0  0  0  0  0  0
   38.1751  -21.0028   37.5153 C   0  0  0  0  0  0  0  0  0  0  0  0
   39.5213  -20.5830   37.9238 N   0  0  0  0  0  0  0  0  0  0  0  0
   40.2223  -21.5771   38.6688 C   0  0  0  0  0  0  0  0  0  0  0  0
   40.1719  -20.1547   36.7285 C   0  0  0  0  0  0  0  0  0  0  0  0
   39.4723  -19.0051   36.1073 C   0  0  0  0  0  0  0  0  0  0  0  0
   34.2500  -12.7714   36.5924 O   0  0  0  0  0  0  0  0  0  0  0  0
   33.6179  -12.4294   37.8086 C   0  0  0  0  0  0  0  0  0  0  0  0
   33.2428  -10.9643   37.7211 C   0  0  0  0  0  0  0  0  0  0  0  0
   34.2118  -10.1710   36.9070 C   0  0  0  0  0  0  0  0  0  0  0  0
   34.0851   -8.7481   37.0609 N   0  0  0  0  0  0  0  0  0  0  0  0
   34.8994   -8.0910   36.0559 C   0  0  0  0  0  0  0  0  0  0  0  0
   34.0114   -8.1340   34.8392 C   0  0  0  0  0  0  0  0  0  0  0  0
   32.6444   -7.8854   35.3925 C   0  0  0  0  0  0  0  0  0  0  0  0
   32.7571   -8.2455   36.8553 C   0  0  0  0  0  0  0  0  0  0  0  0
 17 18  1  0  0  0
 18  1  1  0  0  0
  1  2  2  0  0  0
  2  3  1  0  0  0
  3  4  2  0  0  0
  4 19  1  0  0  0
 19 21  1  0  0  0
 21 22  1  0  0  0
 22 23  1  0  0  0
 23 24  1  0  0  0
 24 25  1  0  0  0
 24 26  1  0  0  0
 26 27  1  0  0  0
  4  5  1  0  0  0
  5  6  2  0  0  0
  6  7  1  0  0  0
  7  8  2  0  0  0
  8  9  1  0  0  0
  9 10  2  0  0  0
 10 28  1  0  0  0
 28 29  1  0  0  0
 29 30  1  0  0  0
 30 31  1  0  0  0
 31 32  1  0  0  0
 32 33  1  0  0  0
 33 34  1  0  0  0
 34 35  1  0  0  0
 35 36  1  0  0  0
  6 11  1  0  0  0
 11 12  1  0  0  0
 12 13  2  0  0  0
 13 14  1  0  0  0
 14 15  1  0  0  0
 14 16  1  0  0  0
 10  1  1  0  0  0
 36 32  1  0  0  0
 16 11  2  0  0  0
  8  3  1  0  0  0
 27 21  1  0  0  0
 19 20  1  0  0  0
M  END
> <minimizedAffinity>
-7.04542

> <CNNscore>
0.5015139580

> <CNNaffinity>
6.8714499474

> <CNN_VS>
3.4461281300

> <CNNaffinity_variance>
0.0662935227

$$$$
[H]c1c(-c2nn(C([H])([H])[H])c([H])c2[H])nc2c([H])c(OC([H])([H])C([H])([H])C([H])([H])N3C([H])([H])C([H])([H])C([H])([H])C3([H])[H])c(OC([H])([H])[H])c([H])c2c1N([H])C1([H])C([H])([H])C([H])([H])N(C([H])([H])[H])C([H])([H])C1([H])[H]


 36 40  0  0  0  0  0  0  0  0999 V2000
   38.1766  -21.2289   36.3346 C   0  0  0  0  0  0  0  0  0  0  0  0
   36.9918  -20.7321   35.7763 C   0  0  0  0  0  0  0  0  0  0  0  0
   36.6391  -19.4102   35.9474 C   0  0  0  0  0  0  0  0  0  0  0  0
   35.4869  -18.8728   35.4197 C   0  0  0  0  0  0  0  0  0  0  0  0
   35.2478  -17.5225   35.6654 C   0  0  0  0  0  0  0  0  0  0  0  0
   36.1178  -16.7447   36.4033 C   0  0  0  0  0  0  0  0  0  0  0  0
   37.2297  -17.3067   36.9002 N   0  0  0  0  0  0  0  0  0  0  0  0
   37.5200  -18.6133   36.6975 C   0  0  0  0  0  0  0  0  0  0  0  0
   38.6824  -19.1333   37.2358 C   0  0  0  0  0  0  0  0  0  0  0  0
   39.0371  -20.4488   37.0681 C   0  0  0  0  0  0  0  0  0  0  0  0
   35.8467  -15.3251   36.6519 C   0  0  0  0  0  0  0  0  0  0  0  0
   36.7845  -14.3170   36.6818 C   0  0  0  0  0  0  0  0  0  0  0  0
   36.1670  -13.1219   36.9419 C   0  0  0  0  0  0  0  0  0  0  0  0
   34.8527  -13.4178   37.0683 N   0  0  0  0  0  0  0  0  0  0  0  0
   33.8553  -12.3923   37.3526 C   0  0  0  0  0  0  0  0  0  0  0  0
   34.6664  -14.7293   36.8950 N   0  0  0  0  0  0  0  0  0  0  0  0
   39.2239  -23.0263   35.0310 C   0  0  0  0  0  0  0  0  0  0  0  0
   38.4488  -22.5694   36.1106 O   0  0  0  0  0  0  0  0  0  0  0  0
   34.5933  -19.6631   34.6879 N   0  0  0  0  0  0  0  0  0  0  0  0
   34.9057  -20.1240   33.8093 H   0  0  0  0  0  0  0  0  0  0  0  0
   33.1954  -19.8730   35.1311 C   0  0  0  0  0  0  0  0  0  0  0  0
   32.4948  -20.7420   34.1451 C   0  0  0  0  0  0  0  0  0  0  0  0
   31.9839  -22.0360   34.7367 C   0  0  0  0  0  0  0  0  0  0  0  0
   31.2768  -21.6327   35.9583 N   0  0  0  0  0  0  0  0  0  0  0  0
   30.2531  -22.5466   36.3475 C   0  0  0  0  0  0  0  0  0  0  0  0
   32.2912  -21.4110   36.9367 C   0  0  0  0  0  0  0  0  0  0  0  0
   33.2153  -20.3259   36.5297 C   0  0  0  0  0  0  0  0  0  0  0  0
   40.2080  -20.9717   37.6120 O   0  0  0  0  0  0  0  0  0  0  0  0
   41.4504  -20.3101   37.4919 C   0  0  0  0  0  0  0  0  0  0  0  0
   41.4080  -19.5090   36.2068 C   0  0  0  0  0  0  0  0  0  0  0  0
   41.8388  -20.3056   35.0190 C   0  0  0  0  0  0  0  0  0  0  0  0
   41.7843  -19.5871   33.7759 N   0  0  0  0  0  0  0  0  0  0  0  0
   41.0361  -20.3707   32.8110 C   0  0  0  0  0  0  0  0  0  0  0  0
   39.6081  -20.0493   33.1686 C   0  0  0  0  0  0  0  0  0  0  0  0
   39.6509  -18.5951   33.5149 C   0  0  0  0  0  0  0  0  0  0  0  0
   41.0999  -18.3281   33.8483 C   0  0  0  0  0  0  0  0  0  0  0  0
 17 18  1  0  0  0
 18  1  1  0  0  0
  1  2  2  0  0  0
  2  3  1  0  0  0
  3  4  2  0  0  0
  4 19  1  0  0  0
 19 21  1  0  0  0
 21 22  1  0  0  0
 22 23  1  0  0  0
 23 24  1  0  0  0
 24 25  1  0  0  0
 24 26  1  0  0  0
 26 27  1  0  0  0
  4  5  1  0  0  0
  5  6  2  0  0  0
  6  7  1  0  0  0
  7  8  2  0  0  0
  8  9  1  0  0  0
  9 10  2  0  0  0
 10 28  1  0  0  0
 28 29  1  0  0  0
 29 30  1  0  0  0
 30 31  1  0  0  0
 31 32  1  0  0  0
 32 33  1  0  0  0
 33 34  1  0  0  0
 34 35  1  0  0  0
 35 36  1  0  0  0
  6 11  1  0  0  0
 11 12  1  0  0  0
 12 13  2  0  0  0
 13 14  1  0  0  0
 14 15  1  0  0  0
 14 16  1  0  0  0
 10  1  1  0  0  0
 36 32  1  0  0  0
 16 11  2  0  0  0
  8  3  1  0  0  0
 27 21  1  0  0  0
 19 20  1  0  0  0
M  END
> <minimizedAffinity>
-5.99401

> <CNNscore>
0.4749161899

> <CNNaffinity>
6.4735999107

> <CNN_VS>
3.0744173527

> <CNNaffinity_variance>
0.0756520778

$$$$
[H]c1c(-c2nn(C([H])([H])[H])c([H])c2[H])nc2c([H])c(OC([H])([H])C([H])([H])C([H])([H])N3C([H])([H])C([H])([H])C([H])([H])C3([H])[H])c(OC([H])([H])[H])c([H])c2c1N([H])C1([H])C([H])([H])C([H])([H])N(C([H])([H])[H])C([H])([H])C1([H])[H]


 36 40  0  0  0  0  0  0  0  0999 V2000
   36.3536  -22.0608   37.7229 C   0  0  0  0  0  0  0  0  0  0  0  0
   37.2124  -21.2499   36.9699 C   0  0  0  0  0  0  0  0  0  0  0  0
   37.0401  -19.8822   36.9460 C   0  0  0  0  0  0  0  0  0  0  0  0
   37.8558  -19.0415   36.2232 C   0  0  0  0  0  0  0  0  0  0  0  0
   37.5741  -17.6784   36.2847 C   0  0  0  0  0  0  0  0  0  0  0  0
   36.5272  -17.1777   37.0327 C   0  0  0  0  0  0  0  0  0  0  0  0
   35.7557  -18.0306   37.7229 N   0  0  0  0  0  0  0  0  0  0  0  0
   35.9764  -19.3661   37.7049 C   0  0  0  0  0  0  0  0  0  0  0  0
   35.1457  -20.1929   38.4382 C   0  0  0  0  0  0  0  0  0  0  0  0
   35.3136  -21.5551   38.4644 C   0  0  0  0  0  0  0  0  0  0  0  0
   36.2465  -15.7392   37.0828 C   0  0  0  0  0  0  0  0  0  0  0  0
   37.1411  -14.7537   37.4366 C   0  0  0  0  0  0  0  0  0  0  0  0
   36.5280  -13.5303   37.3695 C   0  0  0  0  0  0  0  0  0  0  0  0
   35.2597  -13.7864   36.9735 N   0  0  0  0  0  0  0  0  0  0  0  0
   34.2809  -12.7217   36.7848 C   0  0  0  0  0  0  0  0  0  0  0  0
   35.0964  -15.1015   36.8041 N   0  0  0  0  0  0  0  0  0  0  0  0
   36.0626  -24.2784   36.7108 C   0  0  0  0  0  0  0  0  0  0  0  0
   36.6033  -23.4237   37.6866 O   0  0  0  0  0  0  0  0  0  0  0  0
   38.9058  -19.5476   35.4484 N   0  0  0  0  0  0  0  0  0  0  0  0
   38.7850  -19.6656   34.4221 H   0  0  0  0  0  0  0  0  0  0  0  0
   40.2067  -19.9233   36.0492 C   0  0  0  0  0  0  0  0  0  0  0  0
   41.0783  -20.5165   34.9971 C   0  0  0  0  0  0  0  0  0  0  0  0
   42.3620  -19.7500   34.7737 C   0  0  0  0  0  0  0  0  0  0  0  0
   42.9110  -19.5440   36.1196 N   0  0  0  0  0  0  0  0  0  0  0  0
   44.3289  -19.3887   36.1348 C   0  0  0  0  0  0  0  0  0  0  0  0
   42.1787  -18.4516   36.6727 C   0  0  0  0  0  0  0  0  0  0  0  0
   40.7332  -18.7612   36.7799 C   0  0  0  0  0  0  0  0  0  0  0  0
   34.4753  -22.3872   39.2027 O   0  0  0  0  0  0  0  0  0  0  0  0
   33.0689  -22.3331   39.0801 C   0  0  0  0  0  0  0  0  0  0  0  0
   32.4995  -23.4061   39.9852 C   0  0  0  0  0  0  0  0  0  0  0  0
   31.0434  -23.6422   39.7506 C   0  0  0  0  0  0  0  0  0  0  0  0
   30.7552  -24.7999   38.9500 N   0  0  0  0  0  0  0  0  0  0  0  0
   30.3430  -25.8845   39.8209 C   0  0  0  0  0  0  0  0  0  0  0  0
   28.8888  -25.5724   40.0625 C   0  0  0  0  0  0  0  0  0  0  0  0
   28.4127  -25.0666   38.7381 C   0  0  0  0  0  0  0  0  0  0  0  0
   29.6708  -24.6272   38.0265 C   0  0  0  0  0  0  0  0  0  0  0  0
 17 18  1  0  0  0
 18  1  1  0  0  0
  1  2  2  0  0  0
  2  3  1  0  0  0
  3  4  2  0  0  0
  4 19  1  0  0  0
 19 21  1  0  0  0
 21 22  1  0  0  0
 22 23  1  0  0  0
 23 24  1  0  0  0
 24 25  1  0  0  0
 24 26  1  0  0  0
 26 27  1  0  0  0
  4  5  1  0  0  0
  5  6  2  0  0  0
  6  7  1  0  0  0
  7  8  2  0  0  0
  8  9  1  0  0  0
  9 10  2  0  0  0
 10 28  1  0  0  0
 28 29  1  0  0  0
 29 30  1  0  0  0
 30 31  1  0  0  0
 31 32  1  0  0  0
 32 33  1  0  0  0
 33 34  1  0  0  0
 34 35  1  0  0  0
 35 36  1  0  0  0
  6 11  1  0  0  0
 11 12  1  0  0  0
 12 13  2  0  0  0
 13 14  1  0  0  0
 14 15  1  0  0  0
 14 16  1  0  0  0
 10  1  1  0  0  0
 36 32  1  0  0  0
 16 11  2  0  0  0
  8  3  1  0  0  0
 27 21  1  0  0  0
 19 20  1  0  0  0
M  END
> <minimizedAffinity>
-4.86766

> <CNNscore>
0.4466753602

> <CNNaffinity>
5.9229507446

> <CNN_VS>
2.6456360817

> <CNNaffinity_variance>
0.0207083672

$$$$
[H]c1c(-c2nn(C([H])([H])[H])c([H])c2[H])nc2c([H])c(OC([H])([H])C([H])([H])C([H])([H])N3C([H])([H])C([H])([H])C([H])([H])C3([H])[H])c(OC([H])([H])[H])c([H])c2c1N([H])C1([H])C([H])([H])C([H])([H])N(C([H])([H])[H])C([H])([H])C1([H])[H]


 36 40  0  0  0  0  0  0  0  0999 V2000
   37.3663  -21.1177   36.9614 C   0  0  0  0  0  0  0  0  0  0  0  0
   37.4913  -21.6496   38.2512 C   0  0  0  0  0  0  0  0  0  0  0  0
   36.6700  -21.2140   39.2694 C   0  0  0  0  0  0  0  0  0  0  0  0
   36.7517  -21.7042   40.5531 C   0  0  0  0  0  0  0  0  0  0  0  0
   35.8626  -21.1798   41.4889 C   0  0  0  0  0  0  0  0  0  0  0  0
   34.9352  -20.2116   41.1590 C   0  0  0  0  0  0  0  0  0  0  0  0
   34.8881  -19.7605   39.8968 N   0  0  0  0  0  0  0  0  0  0  0  0
   35.7242  -20.2287   38.9406 C   0  0  0  0  0  0  0  0  0  0  0  0
   35.6253  -19.7234   37.6574 C   0  0  0  0  0  0  0  0  0  0  0  0
   36.4413  -20.1540   36.6410 C   0  0  0  0  0  0  0  0  0  0  0  0
   34.0091  -19.6716   42.1596 C   0  0  0  0  0  0  0  0  0  0  0  0
   34.3245  -18.7610   43.1436 C   0  0  0  0  0  0  0  0  0  0  0  0
   33.2098  -18.4881   43.8920 C   0  0  0  0  0  0  0  0  0  0  0  0
   32.2229  -19.2401   43.3522 N   0  0  0  0  0  0  0  0  0  0  0  0
   30.8640  -19.2243   43.8818 C   0  0  0  0  0  0  0  0  0  0  0  0
   32.7025  -19.9425   42.3220 N   0  0  0  0  0  0  0  0  0  0  0  0
   39.4697  -22.2076   36.3173 C   0  0  0  0  0  0  0  0  0  0  0  0
   38.2344  -21.6158   36.0025 O   0  0  0  0  0  0  0  0  0  0  0  0
   37.7036  -22.6714   40.8953 N   0  0  0  0  0  0  0  0  0  0  0  0
   37.6853  -23.6045   40.4361 H   0  0  0  0  0  0  0  0  0  0  0  0
   38.7568  -22.4062   41.9028 C   0  0  0  0  0  0  0  0  0  0  0  0
   39.4966  -23.6685   42.1810 C   0  0  0  0  0  0  0  0  0  0  0  0
   40.9711  -23.5880   41.8571 C   0  0  0  0  0  0  0  0  0  0  0  0
   41.4236  -22.3436   42.4911 N   0  0  0  0  0  0  0  0  0  0  0  0
   42.8103  -22.3505   42.8253 C   0  0  0  0  0  0  0  0  0  0  0  0
   41.0200  -21.2937   41.6135 C   0  0  0  0  0  0  0  0  0  0  0  0
   39.5470  -21.2502   41.4545 C   0  0  0  0  0  0  0  0  0  0  0  0
   36.3414  -19.6433   35.3489 O   0  0  0  0  0  0  0  0  0  0  0  0
   36.8916  -18.3915   34.9936 C   0  0  0  0  0  0  0  0  0  0  0  0
   37.9408  -18.6494   33.9317 C   0  0  0  0  0  0  0  0  0  0  0  0
   39.3141  -18.7871   34.5027 C   0  0  0  0  0  0  0  0  0  0  0  0
   40.3658  -18.7512   33.5244 N   0  0  0  0  0  0  0  0  0  0  0  0
   41.6207  -18.4605   34.1918 C   0  0  0  0  0  0  0  0  0  0  0  0
   42.0286  -19.8116   34.7196 C   0  0  0  0  0  0  0  0  0  0  0  0
   41.6271  -20.7516   33.6280 C   0  0  0  0  0  0  0  0  0  0  0  0
   40.5830  -19.9943   32.8416 C   0  0  0  0  0  0  0  0  0  0  0  0
 17 18  1  0  0  0
 18  1  1  0  0  0
  1  2  2  0  0  0
  2  3  1  0  0  0
  3  4  2  0  0  0
  4 19  1  0  0  0
 19 21  1  0  0  0
 21 22  1  0  0  0
 22 23  1  0  0  0
 23 24  1  0  0  0
 24 25  1  0  0  0
 24 26  1  0  0  0
 26 27  1  0  0  0
  4  5  1  0  0  0
  5  6  2  0  0  0
  6  7  1  0  0  0
  7  8  2  0  0  0
  8  9  1  0  0  0
  9 10  2  0  0  0
 10 28  1  0  0  0
 28 29  1  0  0  0
 29 30  1  0  0  0
 30 31  1  0  0  0
 31 32  1  0  0  0
 32 33  1  0  0  0
 33 34  1  0  0  0
 34 35  1  0  0  0
 35 36  1  0  0  0
  6 11  1  0  0  0
 11 12  1  0  0  0
 12 13  2  0  0  0
 13 14  1  0  0  0
 14 15  1  0  0  0
 14 16  1  0  0  0
 10  1  1  0  0  0
 36 32  1  0  0  0
 16 11  2  0  0  0
  8  3  1  0  0  0
 27 21  1  0  0  0
 19 20  1  0  0  0
M  END
> <minimizedAffinity>
-4.83552

> <CNNscore>
0.4416528642

> <CNNaffinity>
5.4974989891

> <CNN_VS>
2.4279861450

> <CNNaffinity_variance>
0.2555457652

$$$$
[H]c1c(-c2nn(C([H])([H])[H])c([H])c2[H])nc2c([H])c(OC([H])([H])C([H])([H])C([H])([H])N3C([H])([H])C([H])([H])C([H])([H])C3([H])[H])c(OC([H])([H])[H])c([H])c2c1N([H])C1([H])C([H])([H])C([H])([H])N(C([H])([H])[H])C([H])([H])C1([H])[H]


 36 40  0  0  0  0  0  0  0  0999 V2000
   36.0494  -16.2799   36.8438 C   0  0  0  0  0  0  0  0  0  0  0  0
   36.2745  -17.6399   37.0925 C   0  0  0  0  0  0  0  0  0  0  0  0
   35.3111  -18.5760   36.7819 C   0  0  0  0  0  0  0  0  0  0  0  0
   35.4826  -19.9233   37.0057 C   0  0  0  0  0  0  0  0  0  0  0  0
   34.4313  -20.7638   36.6460 C   0  0  0  0  0  0  0  0  0  0  0  0
   33.2634  -20.2823   36.0888 C   0  0  0  0  0  0  0  0  0  0  0  0
   33.1359  -18.9624   35.8871 N   0  0  0  0  0  0  0  0  0  0  0  0
   34.1201  -18.0927   36.2148 C   0  0  0  0  0  0  0  0  0  0  0  0
   33.9279  -16.7436   35.9815 C   0  0  0  0  0  0  0  0  0  0  0  0
   34.8843  -15.8083   36.2895 C   0  0  0  0  0  0  0  0  0  0  0  0
   32.1678  -21.1840   35.7185 C   0  0  0  0  0  0  0  0  0  0  0  0
   32.2864  -22.3342   34.9702 C   0  0  0  0  0  0  0  0  0  0  0  0
   31.0553  -22.9176   34.8253 C   0  0  0  0  0  0  0  0  0  0  0  0
   30.1962  -22.1113   35.4907 N   0  0  0  0  0  0  0  0  0  0  0  0
   28.7687  -22.4008   35.5667 C   0  0  0  0  0  0  0  0  0  0  0  0
   30.8619  -21.0813   36.0206 N   0  0  0  0  0  0  0  0  0  0  0  0
   37.0542  -14.0403   36.8850 C   0  0  0  0  0  0  0  0  0  0  0  0
   37.0740  -15.4124   37.1885 O   0  0  0  0  0  0  0  0  0  0  0  0
   36.6573  -20.4126   37.5883 N   0  0  0  0  0  0  0  0  0  0  0  0
   37.4788  -20.6385   36.9918 H   0  0  0  0  0  0  0  0  0  0  0  0
   36.7745  -20.6193   39.0506 C   0  0  0  0  0  0  0  0  0  0  0  0
   35.4165  -20.5766   39.6609 C   0  0  0  0  0  0  0  0  0  0  0  0
   35.0303  -21.8579   40.3642 C   0  0  0  0  0  0  0  0  0  0  0  0
   36.1831  -22.1770   41.2153 N   0  0  0  0  0  0  0  0  0  0  0  0
   35.8428  -22.9569   42.3600 C   0  0  0  0  0  0  0  0  0  0  0  0
   37.1510  -22.7675   40.3493 C   0  0  0  0  0  0  0  0  0  0  0  0
   37.5780  -21.8280   39.2854 C   0  0  0  0  0  0  0  0  0  0  0  0
   34.6890  -14.4492   36.0550 O   0  0  0  0  0  0  0  0  0  0  0  0
   33.4051  -13.9051   35.8282 C   0  0  0  0  0  0  0  0  0  0  0  0
   33.0266  -13.1207   37.0678 C   0  0  0  0  0  0  0  0  0  0  0  0
   31.8024  -12.2883   36.8691 C   0  0  0  0  0  0  0  0  0  0  0  0
   31.3727  -11.5818   38.0441 N   0  0  0  0  0  0  0  0  0  0  0  0
   30.5637  -10.4466   37.6420 C   0  0  0  0  0  0  0  0  0  0  0  0
   29.2139  -11.0752   37.4108 C   0  0  0  0  0  0  0  0  0  0  0  0
   29.1071  -12.0909   38.5033 C   0  0  0  0  0  0  0  0  0  0  0  0
   30.5355  -12.3468   38.9229 C   0  0  0  0  0  0  0  0  0  0  0  0
 17 18  1  0  0  0
 18  1  1  0  0  0
  1  2  2  0  0  0
  2  3  1  0  0  0
  3  4  2  0  0  0
  4 19  1  0  0  0
 19 21  1  0  0  0
 21 22  1  0  0  0
 22 23  1  0  0  0
 23 24  1  0  0  0
 24 25  1  0  0  0
 24 26  1  0  0  0
 26 27  1  0  0  0
  4  5  1  0  0  0
  5  6  2  0  0  0
  6  7  1  0  0  0
  7  8  2  0  0  0
  8  9  1  0  0  0
  9 10  2  0  0  0
 10 28  1  0  0  0
 28 29  1  0  0  0
 29 30  1  0  0  0
 30 31  1  0  0  0
 31 32  1  0  0  0
 32 33  1  0  0  0
 33 34  1  0  0  0
 34 35  1  0  0  0
 35 36  1  0  0  0
  6 11  1  0  0  0
 11 12  1  0  0  0
 12 13  2  0  0  0
 13 14  1  0  0  0
 14 15  1  0  0  0
 14 16  1  0  0  0
 10  1  1  0  0  0
 36 32  1  0  0  0
 16 11  2  0  0  0
  8  3  1  0  0  0
 27 21  1  0  0  0
 19 20  1  0  0  0
M  END
> <minimizedAffinity>
-6.36190

> <CNNscore>
0.2881264389

> <CNNaffinity>
6.0597620010

> <CNN_VS>
1.7459776402

> <CNNaffinity_variance>
0.0599960685

$$$$
[H]c1c(-c2nn(C([H])([H])[H])c([H])c2[H])nc2c([H])c(OC([H])([H])C([H])([H])C([H])([H])N3C([H])([H])C([H])([H])C([H])([H])C3([H])[H])c(OC([H])([H])[H])c([H])c2c1N([H])C1([H])C([H])([H])C([H])([H])N(C([H])([H])[H])C([H])([H])C1([H])[H]


 36 40  0  0  0  0  0  0  0  0999 V2000
   37.8254  -19.6910   35.7498 C   0  0  0  0  0  0  0  0  0  0  0  0
   36.5454  -19.3694   35.2804 C   0  0  0  0  0  0  0  0  0  0  0  0
   35.9772  -18.1493   35.5799 C   0  0  0  0  0  0  0  0  0  0  0  0
   34.7238  -17.7845   35.1434 C   0  0  0  0  0  0  0  0  0  0  0  0
   34.2662  -16.5223   35.5157 C   0  0  0  0  0  0  0  0  0  0  0  0
   35.0241  -15.6643   36.2875 C   0  0  0  0  0  0  0  0  0  0  0  0
   36.2406  -16.0579   36.6926 N   0  0  0  0  0  0  0  0  0  0  0  0
   36.7430  -17.2715   36.3652 C   0  0  0  0  0  0  0  0  0  0  0  0
   38.0041  -17.6183   36.8135 C   0  0  0  0  0  0  0  0  0  0  0  0
   38.5732  -18.8320   36.5178 C   0  0  0  0  0  0  0  0  0  0  0  0
   34.5231  -14.3401   36.6698 C   0  0  0  0  0  0  0  0  0  0  0  0
   35.2565  -13.1745   36.6915 C   0  0  0  0  0  0  0  0  0  0  0  0
   34.4598  -12.1374   37.0997 C   0  0  0  0  0  0  0  0  0  0  0  0
   33.2435  -12.6865   37.3234 N   0  0  0  0  0  0  0  0  0  0  0  0
   32.1094  -11.8897   37.7776 C   0  0  0  0  0  0  0  0  0  0  0  0
   33.2854  -13.9968   37.0665 N   0  0  0  0  0  0  0  0  0  0  0  0
   39.0316  -21.1786   34.2139 C   0  0  0  0  0  0  0  0  0  0  0  0
   38.3148  -20.9394   35.3989 O   0  0  0  0  0  0  0  0  0  0  0  0
   33.9452  -18.6595   34.3773 N   0  0  0  0  0  0  0  0  0  0  0  0
   34.2600  -18.9391   33.4263 H   0  0  0  0  0  0  0  0  0  0  0  0
   32.6686  -19.2141   34.8846 C   0  0  0  0  0  0  0  0  0  0  0  0
   32.1237  -20.1779   33.8884 C   0  0  0  0  0  0  0  0  0  0  0  0
   31.9705  -21.5818   34.4280 C   0  0  0  0  0  0  0  0  0  0  0  0
   31.2744  -21.4136   35.7095 N   0  0  0  0  0  0  0  0  0  0  0  0
   30.5212  -22.5605   36.0992 C   0  0  0  0  0  0  0  0  0  0  0  0
   32.2740  -21.0034   36.6412 C   0  0  0  0  0  0  0  0  0  0  0  0
   32.8895  -19.7132   36.2498 C   0  0  0  0  0  0  0  0  0  0  0  0
   39.8434  -19.1806   36.9710 O   0  0  0  0  0  0  0  0  0  0  0  0
   41.0130  -18.8458   36.2529 C   0  0  0  0  0  0  0  0  0  0  0  0
   42.1820  -19.4716   36.9855 C   0  0  0  0  0  0  0  0  0  0  0  0
   42.2461  -19.0624   38.4206 C   0  0  0  0  0  0  0  0  0  0  0  0
   42.4425  -20.1520   39.3362 N   0  0  0  0  0  0  0  0  0  0  0  0
   43.5223  -19.8154   40.2447 C   0  0  0  0  0  0  0  0  0  0  0  0
   42.8288  -18.9551   41.2691 C   0  0  0  0  0  0  0  0  0  0  0  0
   41.4972  -19.6142   41.4387 C   0  0  0  0  0  0  0  0  0  0  0  0
   41.3150  -20.4285   40.1794 C   0  0  0  0  0  0  0  0  0  0  0  0
 17 18  1  0  0  0
 18  1  1  0  0  0
  1  2  2  0  0  0
  2  3  1  0  0  0
  3  4  2  0  0  0
  4 19  1  0  0  0
 19 21  1  0  0  0
 21 22  1  0  0  0
 22 23  1  0  0  0
 23 24  1  0  0  0
 24 25  1  0  0  0
 24 26  1  0  0  0
 26 27  1  0  0  0
  4  5  1  0  0  0
  5  6  2  0  0  0
  6  7  1  0  0  0
  7  8  2  0  0  0
  8  9  1  0  0  0
  9 10  2  0  0  0
 10 28  1  0  0  0
 28 29  1  0  0  0
 29 30  1  0  0  0
 30 31  1  0  0  0
 31 32  1  0  0  0
 32 33  1  0  0  0
 33 34  1  0  0  0
 34 35  1  0  0  0
 35 36  1  0  0  0
  6 11  1  0  0  0
 11 12  1  0  0  0
 12 13  2  0  0  0
 13 14  1  0  0  0
 14 15  1  0  0  0
 14 16  1  0  0  0
 10  1  1  0  0  0
 36 32  1  0  0  0
 16 11  2  0  0  0
  8  3  1  0  0  0
 27 21  1  0  0  0
 19 20  1  0  0  0
M  END
> <minimizedAffinity>
-6.84485

> <CNNscore>
0.2815644145

> <CNNaffinity>
6.1291475296

> <CNN_VS>
1.7257498503

> <CNNaffinity_variance>
0.2912003398

$$$$
[H]c1c(-c2nc3c([H])c(OC([H])([H])C([H])([H])C([H])([H])N4C([H])([H])C([H])([H])C([H])([H])C4([H])[H])c(OC([H])([H])[H])c([H])c3c(N([H])C([H])([H])C3([H])C([H])([H])C([H])([H])N(C([H])(C([H])([H])[H])C([H])([H])[H])C([H])([H])C3([H])[H])c2[H])oc(C([H])([H])[H])c1[H]


 39 43  0  0  0  0  0  0  0  0999 V2000
   36.1770  -13.7943   36.7122 C   0  0  0  0  0  0  0  0  0  0  0  0
   36.6008  -15.0643   36.3342 C   0  0  0  0  0  0  0  0  0  0  0  0
   35.6783  -16.0519   36.0174 C   0  0  0  0  0  0  0  0  0  0  0  0
   36.0896  -17.3149   35.6415 C   0  0  0  0  0  0  0  0  0  0  0  0
   35.0725  -18.2322   35.3449 C   0  0  0  0  0  0  0  0  0  0  0  0
   33.7386  -17.9256   35.4138 C   0  0  0  0  0  0  0  0  0  0  0  0
   33.3994  -16.6939   35.7813 N   0  0  0  0  0  0  0  0  0  0  0  0
   34.3250  -15.7548   36.0829 C   0  0  0  0  0  0  0  0  0  0  0  0
   33.9505  -14.4769   36.4642 C   0  0  0  0  0  0  0  0  0  0  0  0
   34.8399  -13.4762   36.7844 C   0  0  0  0  0  0  0  0  0  0  0  0
   32.7359  -18.9412   35.0891 C   0  0  0  0  0  0  0  0  0  0  0  0
   32.8294  -19.8749   34.1041 C   0  0  0  0  0  0  0  0  0  0  0  0
   31.6900  -20.6183   34.1404 C   0  0  0  0  0  0  0  0  0  0  0  0
   30.9203  -20.1025   35.1699 C   0  0  0  0  0  0  0  0  0  0  0  0
   29.5876  -20.6488   35.5315 C   0  0  0  0  0  0  0  0  0  0  0  0
   31.5934  -19.1158   35.6890 O   0  0  0  0  0  0  0  0  0  0  0  0
   38.3944  -13.1798   37.4795 C   0  0  0  0  0  0  0  0  0  0  0  0
   37.1049  -12.8132   37.0275 O   0  0  0  0  0  0  0  0  0  0  0  0
   37.4448  -17.6982   35.5481 N   0  0  0  0  0  0  0  0  0  0  0  0
   38.0424  -17.4412   34.7543 H   0  0  0  0  0  0  0  0  0  0  0  0
   38.0320  -18.4812   36.5978 C   0  0  0  0  0  0  0  0  0  0  0  0
   38.9172  -19.5851   36.0871 C   0  0  0  0  0  0  0  0  0  0  0  0
   38.4401  -20.1762   34.8023 C   0  0  0  0  0  0  0  0  0  0  0  0
   39.3664  -21.2105   34.2829 C   0  0  0  0  0  0  0  0  0  0  0  0
   40.0630  -22.0129   35.2128 N   0  0  0  0  0  0  0  0  0  0  0  0
   40.1290  -21.6292   36.5450 C   0  0  0  0  0  0  0  0  0  0  0  0
   39.0320  -20.7305   37.0688 C   0  0  0  0  0  0  0  0  0  0  0  0
   40.1717  -23.3982   34.8861 C   0  0  0  0  0  0  0  0  0  0  0  0
   40.2292  -24.2881   36.1054 C   0  0  0  0  0  0  0  0  0  0  0  0
   38.9614  -23.8472   34.0958 C   0  0  0  0  0  0  0  0  0  0  0  0
   34.4199  -12.2106   37.1609 O   0  0  0  0  0  0  0  0  0  0  0  0
   33.4855  -11.9589   38.1652 C   0  0  0  0  0  0  0  0  0  0  0  0
   32.3212  -11.1128   37.6444 C   0  0  0  0  0  0  0  0  0  0  0  0
   31.2267  -12.0744   37.2578 C   0  0  0  0  0  0  0  0  0  0  0  0
   29.9086  -11.6061   37.5533 N   0  0  0  0  0  0  0  0  0  0  0  0
   29.3813  -12.3674   38.6502 C   0  0  0  0  0  0  0  0  0  0  0  0
   28.9467  -11.3744   39.7119 C   0  0  0  0  0  0  0  0  0  0  0  0
   28.6340  -10.1586   38.8469 C   0  0  0  0  0  0  0  0  0  0  0  0
   29.8196  -10.2171   37.8736 C   0  0  0  0  0  0  0  0  0  0  0  0
 17 18  1  0  0  0
 18  1  1  0  0  0
  1  2  2  0  0  0
  2  3  1  0  0  0
  3  4  2  0  0  0
  4 19  1  0  0  0
 19 21  1  0  0  0
 21 22  1  0  0  0
 22 23  1  0  0  0
 23 24  1  0  0  0
 24 25  1  0  0  0
 25 26  1  0  0  0
 26 27  1  0  0  0
 25 28  1  0  0  0
 28 29  1  0  0  0
 28 30  1  0  0  0
  4  5  1  0  0  0
  5  6  2  0  0  0
  6  7  1  0  0  0
  7  8  2  0  0  0
  8  9  1  0  0  0
  9 10  2  0  0  0
 10 31  1  0  0  0
 31 32  1  0  0  0
 32 33  1  0  0  0
 33 34  1  0  0  0
 34 35  1  0  0  0
 35 36  1  0  0  0
 36 37  1  0  0  0
 37 38  1  0  0  0
 38 39  1  0  0  0
  6 11  1  0  0  0
 11 12  2  0  0  0
 12 13  1  0  0  0
 13 14  2  0  0  0
 14 15  1  0  0  0
 14 16  1  0  0  0
 10  1  1  0  0  0
 39 35  1  0  0  0
 16 11  1  0  0  0
  8  3  1  0  0  0
 27 22  1  0  0  0
 19 20  1  0  0  0
M  END
> <minimizedAffinity>
-8.12837

> <CNNscore>
0.7571105957

> <CNNaffinity>
7.3484735489

> <CNN_VS>
5.5636072159

> <CNNaffinity_variance>
0.0690374076

$$$$
[H]c1c(-c2nc3c([H])c(OC([H])([H])C([H])([H])C([H])([H])N4C([H])([H])C([H])([H])C([H])([H])C4([H])[H])c(OC([H])([H])[H])c([H])c3c(N([H])C([H])([H])C3([H])C([H])([H])C([H])([H])N(C([H])(C([H])([H])[H])C([H])([H])[H])C([H])([H])C3([H])[H])c2[H])oc(C([H])([H])[H])c1[H]


 39 43  0  0  0  0  0  0  0  0999 V2000
   36.2139  -13.7915   36.7517 C   0  0  0  0  0  0  0  0  0  0  0  0
   36.6444  -15.0744   36.4291 C   0  0  0  0  0  0  0  0  0  0  0  0
   35.7291  -16.0658   36.1032 C   0  0  0  0  0  0  0  0  0  0  0  0
   36.1470  -17.3416   35.7820 C   0  0  0  0  0  0  0  0  0  0  0  0
   35.1368  -18.2616   35.4704 C   0  0  0  0  0  0  0  0  0  0  0  0
   33.8034  -17.9456   35.4748 C   0  0  0  0  0  0  0  0  0  0  0  0
   33.4576  -16.7017   35.7916 N   0  0  0  0  0  0  0  0  0  0  0  0
   34.3763  -15.7593   36.1037 C   0  0  0  0  0  0  0  0  0  0  0  0
   33.9951  -14.4686   36.4314 C   0  0  0  0  0  0  0  0  0  0  0  0
   34.8772  -13.4639   36.7589 C   0  0  0  0  0  0  0  0  0  0  0  0
   32.8080  -18.9647   35.1385 C   0  0  0  0  0  0  0  0  0  0  0  0
   32.9504  -19.9503   34.2116 C   0  0  0  0  0  0  0  0  0  0  0  0
   31.7996  -20.6769   34.2121 C   0  0  0  0  0  0  0  0  0  0  0  0
   30.9731  -20.0980   35.1609 C   0  0  0  0  0  0  0  0  0  0  0  0
   29.6116  -20.6083   35.4627 C   0  0  0  0  0  0  0  0  0  0  0  0
   31.6266  -19.0935   35.6709 O   0  0  0  0  0  0  0  0  0  0  0  0
   38.4232  -13.1681   37.5354 C   0  0  0  0  0  0  0  0  0  0  0  0
   37.1347  -12.8066   37.0765 O   0  0  0  0  0  0  0  0  0  0  0  0
   37.5023  -17.7351   35.7563 N   0  0  0  0  0  0  0  0  0  0  0  0
   38.2468  -17.1965   36.2132 H   0  0  0  0  0  0  0  0  0  0  0  0
   37.8765  -18.9369   35.0669 C   0  0  0  0  0  0  0  0  0  0  0  0
   39.3176  -19.3142   35.2768 C   0  0  0  0  0  0  0  0  0  0  0  0
   39.8945  -18.7589   36.5363 C   0  0  0  0  0  0  0  0  0  0  0  0
   41.2914  -19.2035   36.7568 C   0  0  0  0  0  0  0  0  0  0  0  0
   42.1177  -19.3986   35.6285 N   0  0  0  0  0  0  0  0  0  0  0  0
   41.5520  -19.4911   34.3644 C   0  0  0  0  0  0  0  0  0  0  0  0
   40.2070  -18.8349   34.1507 C   0  0  0  0  0  0  0  0  0  0  0  0
   43.4637  -18.9395   35.7517 C   0  0  0  0  0  0  0  0  0  0  0  0
   43.8773  -18.0192   34.6275 C   0  0  0  0  0  0  0  0  0  0  0  0
   43.6315  -18.1438   37.0284 C   0  0  0  0  0  0  0  0  0  0  0  0
   34.4506  -12.1854   37.0803 O   0  0  0  0  0  0  0  0  0  0  0  0
   33.5375  -11.8928   38.0930 C   0  0  0  0  0  0  0  0  0  0  0  0
   32.3300  -11.1244   37.5503 C   0  0  0  0  0  0  0  0  0  0  0  0
   31.2376  -12.1383   37.3252 C   0  0  0  0  0  0  0  0  0  0  0  0
   29.9210  -11.6423   37.5791 N   0  0  0  0  0  0  0  0  0  0  0  0
   29.3441  -12.3906   38.6598 C   0  0  0  0  0  0  0  0  0  0  0  0
   28.8975  -11.3870   39.7065 C   0  0  0  0  0  0  0  0  0  0  0  0
   28.6373  -10.1664   38.8310 C   0  0  0  0  0  0  0  0  0  0  0  0
   29.8510  -10.2511   37.8950 C   0  0  0  0  0  0  0  0  0  0  0  0
 17 18  1  0  0  0
 18  1  1  0  0  0
  1  2  2  0  0  0
  2  3  1  0  0  0
  3  4  2  0  0  0
  4 19  1  0  0  0
 19 21  1  0  0  0
 21 22  1  0  0  0
 22 23  1  0  0  0
 23 24  1  0  0  0
 24 25  1  0  0  0
 25 26  1  0  0  0
 26 27  1  0  0  0
 25 28  1  0  0  0
 28 29  1  0  0  0
 28 30  1  0  0  0
  4  5  1  0  0  0
  5  6  2  0  0  0
  6  7  1  0  0  0
  7  8  2  0  0  0
  8  9  1  0  0  0
  9 10  2  0  0  0
 10 31  1  0  0  0
 31 32  1  0  0  0
 32 33  1  0  0  0
 33 34  1  0  0  0
 34 35  1  0  0  0
 35 36  1  0  0  0
 36 37  1  0  0  0
 37 38  1  0  0  0
 38 39  1  0  0  0
  6 11  1  0  0  0
 11 12  2  0  0  0
 12 13  1  0  0  0
 13 14  2  0  0  0
 14 15  1  0  0  0
 14 16  1  0  0  0
 10  1  1  0  0  0
 39 35  1  0  0  0
 16 11  1  0  0  0
  8  3  1  0  0  0
 27 22  1  0  0  0
 19 20  1  0  0  0
M  END
> <minimizedAffinity>
-8.57748

> <CNNscore>
0.6366522908

> <CNNaffinity>
7.3082184792

> <CNN_VS>
4.6527938843

> <CNNaffinity_variance>
0.0691995919

$$$$
[H]c1c(-c2nc3c([H])c(OC([H])([H])C([H])([H])C([H])([H])N4C([H])([H])C([H])([H])C([H])([H])C4([H])[H])c(OC([H])([H])[H])c([H])c3c(N([H])C([H])([H])C3([H])C([H])([H])C([H])([H])N(C([H])(C([H])([H])[H])C([H])([H])[H])C([H])([H])C3([H])[H])c2[H])oc(C([H])([H])[H])c1[H]


 39 43  0  0  0  0  0  0  0  0999 V2000
   36.1155  -13.9368   36.6255 C   0  0  0  0  0  0  0  0  0  0  0  0
   36.5894  -15.2378   36.4901 C   0  0  0  0  0  0  0  0  0  0  0  0
   35.7229  -16.2765   36.1784 C   0  0  0  0  0  0  0  0  0  0  0  0
   36.1841  -17.5705   36.0423 C   0  0  0  0  0  0  0  0  0  0  0  0
   35.2212  -18.5387   35.7270 C   0  0  0  0  0  0  0  0  0  0  0  0
   33.8921  -18.2512   35.5568 C   0  0  0  0  0  0  0  0  0  0  0  0
   33.5035  -16.9879   35.6996 N   0  0  0  0  0  0  0  0  0  0  0  0
   34.3752  -15.9992   36.0033 C   0  0  0  0  0  0  0  0  0  0  0  0
   33.9497  -14.6890   36.1481 C   0  0  0  0  0  0  0  0  0  0  0  0
   34.7828  -13.6375   36.4564 C   0  0  0  0  0  0  0  0  0  0  0  0
   32.9475  -19.3202   35.2295 C   0  0  0  0  0  0  0  0  0  0  0  0
   33.1054  -20.2613   34.2598 C   0  0  0  0  0  0  0  0  0  0  0  0
   32.0042  -21.0605   34.2871 C   0  0  0  0  0  0  0  0  0  0  0  0
   31.1911  -20.5701   35.2954 C   0  0  0  0  0  0  0  0  0  0  0  0
   29.8811  -21.1778   35.6416 C   0  0  0  0  0  0  0  0  0  0  0  0
   31.8044  -19.5438   35.8118 O   0  0  0  0  0  0  0  0  0  0  0  0
   38.2813  -13.1974   37.4293 C   0  0  0  0  0  0  0  0  0  0  0  0
   36.9875  -12.9046   36.9373 O   0  0  0  0  0  0  0  0  0  0  0  0
   37.5377  -17.9369   36.2020 N   0  0  0  0  0  0  0  0  0  0  0  0
   38.2267  -17.3333   36.6647 H   0  0  0  0  0  0  0  0  0  0  0  0
   37.9907  -19.2041   35.7031 C   0  0  0  0  0  0  0  0  0  0  0  0
   39.0464  -19.8366   36.5683 C   0  0  0  0  0  0  0  0  0  0  0  0
   38.5279  -20.2939   37.8911 C   0  0  0  0  0  0  0  0  0  0  0  0
   39.5686  -20.9778   38.6951 C   0  0  0  0  0  0  0  0  0  0  0  0
   40.9045  -20.5363   38.5756 N   0  0  0  0  0  0  0  0  0  0  0  0
   41.2725  -19.7254   37.5109 C   0  0  0  0  0  0  0  0  0  0  0  0
   40.1916  -18.8922   36.8606 C   0  0  0  0  0  0  0  0  0  0  0  0
   41.6505  -20.4631   39.7904 C   0  0  0  0  0  0  0  0  0  0  0  0
   42.1675  -19.0739   40.0813 C   0  0  0  0  0  0  0  0  0  0  0  0
   40.7754  -20.8398   40.9666 C   0  0  0  0  0  0  0  0  0  0  0  0
   34.3130  -12.3410   36.5915 O   0  0  0  0  0  0  0  0  0  0  0  0
   33.7486  -11.8271   37.7587 C   0  0  0  0  0  0  0  0  0  0  0  0
   32.3798  -12.4522   38.0385 C   0  0  0  0  0  0  0  0  0  0  0  0
   31.3482  -11.4905   37.5066 C   0  0  0  0  0  0  0  0  0  0  0  0
   29.9983  -11.9248   37.6884 N   0  0  0  0  0  0  0  0  0  0  0  0
   29.8857  -12.5644   38.9687 C   0  0  0  0  0  0  0  0  0  0  0  0
   28.7615  -11.8702   39.7147 C   0  0  0  0  0  0  0  0  0  0  0  0
   27.9099  -11.3831   38.5478 C   0  0  0  0  0  0  0  0  0  0  0  0
   29.0156  -10.8919   37.6030 C   0  0  0  0  0  0  0  0  0  0  0  0
 17 18  1  0  0  0
 18  1  1  0  0  0
  1  2  2  0  0  0
  2  3  1  0  0  0
  3  4  2  0  0  0
  4 19  1  0  0  0
 19 21  1  0  0  0
 21 22  1  0  0  0
 22 23  1  0  0  0
 23 24  1  0  0  0
 24 25  1  0  0  0
 25 26  1  0  0  0
 26 27  1  0  0  0
 25 28  1  0  0  0
 28 29  1  0  0  0
 28 30  1  0  0  0
  4  5  1  0  0  0
  5  6  2  0  0  0
  6  7  1  0  0  0
  7  8  2  0  0  0
  8  9  1  0  0  0
  9 10  2  0  0  0
 10 31  1  0  0  0
 31 32  1  0  0  0
 32 33  1  0  0  0
 33 34  1  0  0  0
 34 35  1  0  0  0
 35 36  1  0  0  0
 36 37  1  0  0  0
 37 38  1  0  0  0
 38 39  1  0  0  0
  6 11  1  0  0  0
 11 12  2  0  0  0
 12 13  1  0  0  0
 13 14  2  0  0  0
 14 15  1  0  0  0
 14 16  1  0  0  0
 10  1  1  0  0  0
 39 35  1  0  0  0
 16 11  1  0  0  0
  8  3  1  0  0  0
 27 22  1  0  0  0
 19 20  1  0  0  0
M  END
> <minimizedAffinity>
-8.45218

> <CNNscore>
0.6279456019

> <CNNaffinity>
7.2020635605

> <CNN_VS>
4.5225043297

> <CNNaffinity_variance>
0.1413243413

$$$$
[H]c1c(-c2nc3c([H])c(OC([H])([H])C([H])([H])C([H])([H])N4C([H])([H])C([H])([H])C([H])([H])C4([H])[H])c(OC([H])([H])[H])c([H])c3c(N([H])C([H])([H])C3([H])C([H])([H])C([H])([H])N(C([H])(C([H])([H])[H])C([H])([H])[H])C([H])([H])C3([H])[H])c2[H])oc(C([H])([H])[H])c1[H]


 39 43  0  0  0  0  0  0  0  0999 V2000
   36.1358  -13.8607   36.6401 C   0  0  0  0  0  0  0  0  0  0  0  0
   36.5763  -15.1532   36.3741 C   0  0  0  0  0  0  0  0  0  0  0  0
   35.6703  -16.1597   36.0693 C   0  0  0  0  0  0  0  0  0  0  0  0
   36.0982  -17.4452   35.8043 C   0  0  0  0  0  0  0  0  0  0  0  0
   35.0969  -18.3802   35.5092 C   0  0  0  0  0  0  0  0  0  0  0  0
   33.7626  -18.0695   35.4771 C   0  0  0  0  0  0  0  0  0  0  0  0
   33.4070  -16.8158   35.7402 N   0  0  0  0  0  0  0  0  0  0  0  0
   34.3168  -15.8587   36.0332 C   0  0  0  0  0  0  0  0  0  0  0  0
   33.9254  -14.5581   36.3049 C   0  0  0  0  0  0  0  0  0  0  0  0
   34.7982  -13.5383   36.6102 C   0  0  0  0  0  0  0  0  0  0  0  0
   32.7769  -19.1044   35.1614 C   0  0  0  0  0  0  0  0  0  0  0  0
   32.9337  -20.1148   34.2640 C   0  0  0  0  0  0  0  0  0  0  0  0
   31.7878  -20.8489   34.2753 C   0  0  0  0  0  0  0  0  0  0  0  0
   30.9494  -20.2491   35.2003 C   0  0  0  0  0  0  0  0  0  0  0  0
   29.5886  -20.7599   35.5049 C   0  0  0  0  0  0  0  0  0  0  0  0
   31.5917  -19.2261   35.6872 O   0  0  0  0  0  0  0  0  0  0  0  0
   38.3144  -13.1978   37.4755 C   0  0  0  0  0  0  0  0  0  0  0  0
   37.0472  -12.8607   36.9442 O   0  0  0  0  0  0  0  0  0  0  0  0
   37.4549  -17.8340   35.8184 N   0  0  0  0  0  0  0  0  0  0  0  0
   38.2274  -17.1585   35.8212 H   0  0  0  0  0  0  0  0  0  0  0  0
   37.7902  -19.2295   35.8295 C   0  0  0  0  0  0  0  0  0  0  0  0
   38.0576  -19.7619   37.2109 C   0  0  0  0  0  0  0  0  0  0  0  0
   39.3951  -20.4109   37.3435 C   0  0  0  0  0  0  0  0  0  0  0  0
   39.6643  -20.8623   38.7295 C   0  0  0  0  0  0  0  0  0  0  0  0
   38.5782  -21.3197   39.5073 N   0  0  0  0  0  0  0  0  0  0  0  0
   37.2774  -21.0468   39.1074 C   0  0  0  0  0  0  0  0  0  0  0  0
   37.0368  -20.7942   37.6364 C   0  0  0  0  0  0  0  0  0  0  0  0
   38.8266  -22.4719   40.3127 C   0  0  0  0  0  0  0  0  0  0  0  0
   37.5780  -23.0113   40.9699 C   0  0  0  0  0  0  0  0  0  0  0  0
   39.3730  -23.5984   39.4620 C   0  0  0  0  0  0  0  0  0  0  0  0
   34.3616  -12.2502   36.8752 O   0  0  0  0  0  0  0  0  0  0  0  0
   33.5751  -11.8966   37.9712 C   0  0  0  0  0  0  0  0  0  0  0  0
   32.1189  -11.6642   37.5611 C   0  0  0  0  0  0  0  0  0  0  0  0
   31.2677  -12.4563   38.5202 C   0  0  0  0  0  0  0  0  0  0  0  0
   29.8612  -12.2998   38.3167 N   0  0  0  0  0  0  0  0  0  0  0  0
   29.1874  -12.4921   39.5696 C   0  0  0  0  0  0  0  0  0  0  0  0
   28.3290  -11.2634   39.8056 C   0  0  0  0  0  0  0  0  0  0  0  0
   28.0697  -10.8229   38.3694 C   0  0  0  0  0  0  0  0  0  0  0  0
   29.4671  -11.0396   37.7720 C   0  0  0  0  0  0  0  0  0  0  0  0
 17 18  1  0  0  0
 18  1  1  0  0  0
  1  2  2  0  0  0
  2  3  1  0  0  0
  3  4  2  0  0  0
  4 19  1  0  0  0
 19 21  1  0  0  0
 21 22  1  0  0  0
 22 23  1  0  0  0
 23 24  1  0  0  0
 24 25  1  0  0  0
 25 26  1  0  0  0
 26 27  1  0  0  0
 25 28  1  0  0  0
 28 29  1  0  0  0
 28 30  1  0  0  0
  4  5  1  0  0  0
  5  6  2  0  0  0
  6  7  1  0  0  0
  7  8  2  0  0  0
  8  9  1  0  0  0
  9 10  2  0  0  0
 10 31  1  0  0  0
 31 32  1  0  0  0
 32 33  1  0  0  0
 33 34  1  0  0  0
 34 35  1  0  0  0
 35 36  1  0  0  0
 36 37  1  0  0  0
 37 38  1  0  0  0
 38 39  1  0  0  0
  6 11  1  0  0  0
 11 12  2  0  0  0
 12 13  1  0  0  0
 13 14  2  0  0  0
 14 15  1  0  0  0
 14 16  1  0  0  0
 10  1  1  0  0  0
 39 35  1  0  0  0
 16 11  1  0  0  0
  8  3  1  0  0  0
 27 22  1  0  0  0
 19 20  1  0  0  0
M  END
> <minimizedAffinity>
-7.79797

> <CNNscore>
0.5577215552

> <CNNaffinity>
7.0365829468

> <CNN_VS>
3.9244539738

> <CNNaffinity_variance>
0.2041046321

$$$$
[H]c1c(-c2nc3c([H])c(OC([H])([H])C([H])([H])C([H])([H])N4C([H])([H])C([H])([H])C([H])([H])C4([H])[H])c(OC([H])([H])[H])c([H])c3c(N([H])C([H])([H])C3([H])C([H])([H])C([H])([H])N(C([H])(C([H])([H])[H])C([H])([H])[H])C([H])([H])C3([H])[H])c2[H])oc(C([H])([H])[H])c1[H]


 39 43  0  0  0  0  0  0  0  0999 V2000
   36.4711  -19.3442   36.3822 C   0  0  0  0  0  0  0  0  0  0  0  0
   35.2571  -18.7402   36.0712 C   0  0  0  0  0  0  0  0  0  0  0  0
   35.1075  -17.3636   36.1679 C   0  0  0  0  0  0  0  0  0  0  0  0
   33.9066  -16.7556   35.8617 C   0  0  0  0  0  0  0  0  0  0  0  0
   33.8693  -15.3611   35.9954 C   0  0  0  0  0  0  0  0  0  0  0  0
   34.9439  -14.6150   36.4036 C   0  0  0  0  0  0  0  0  0  0  0  0
   36.0758  -15.2527   36.6853 N   0  0  0  0  0  0  0  0  0  0  0  0
   36.1874  -16.5966   36.5797 C   0  0  0  0  0  0  0  0  0  0  0  0
   37.3760  -17.2420   36.8785 C   0  0  0  0  0  0  0  0  0  0  0  0
   37.5563  -18.6040   36.7928 C   0  0  0  0  0  0  0  0  0  0  0  0
   34.8243  -13.1609   36.5196 C   0  0  0  0  0  0  0  0  0  0  0  0
   35.5928  -12.2389   35.8791 C   0  0  0  0  0  0  0  0  0  0  0  0
   35.1546  -11.0088   36.2624 C   0  0  0  0  0  0  0  0  0  0  0  0
   34.1089  -11.2245   37.1446 C   0  0  0  0  0  0  0  0  0  0  0  0
   33.3583  -10.1180   37.7907 C   0  0  0  0  0  0  0  0  0  0  0  0
   33.9645  -12.5143   37.2535 O   0  0  0  0  0  0  0  0  0  0  0  0
   36.0355  -21.5616   37.2636 C   0  0  0  0  0  0  0  0  0  0  0  0
   36.6124  -20.7203   36.2833 O   0  0  0  0  0  0  0  0  0  0  0  0
   32.7616  -17.4617   35.4345 N   0  0  0  0  0  0  0  0  0  0  0  0
   31.8654  -17.4225   35.9330 H   0  0  0  0  0  0  0  0  0  0  0  0
   32.8323  -18.2754   34.2544 C   0  0  0  0  0  0  0  0  0  0  0  0
   31.9657  -19.5027   34.3301 C   0  0  0  0  0  0  0  0  0  0  0  0
   30.7964  -19.3429   35.2438 C   0  0  0  0  0  0  0  0  0  0  0  0
   29.9191  -20.5377   35.2458 C   0  0  0  0  0  0  0  0  0  0  0  0
   30.5158  -21.8066   35.0793 N   0  0  0  0  0  0  0  0  0  0  0  0
   31.8167  -21.9024   34.6048 C   0  0  0  0  0  0  0  0  0  0  0  0
   32.7278  -20.7151   34.8181 C   0  0  0  0  0  0  0  0  0  0  0  0
   30.0015  -22.8530   35.9029 C   0  0  0  0  0  0  0  0  0  0  0  0
   30.5339  -22.8061   37.3158 C   0  0  0  0  0  0  0  0  0  0  0  0
   28.4965  -22.7381   36.0178 C   0  0  0  0  0  0  0  0  0  0  0  0
   38.7647  -19.2076   37.1017 O   0  0  0  0  0  0  0  0  0  0  0  0
   40.0126  -18.6930   36.7513 C   0  0  0  0  0  0  0  0  0  0  0  0
   41.1128  -19.7465   36.9023 C   0  0  0  0  0  0  0  0  0  0  0  0
   42.2560  -19.3070   36.0239 C   0  0  0  0  0  0  0  0  0  0  0  0
   42.2523  -19.8998   34.7228 N   0  0  0  0  0  0  0  0  0  0  0  0
   41.6305  -21.1911   34.8037 C   0  0  0  0  0  0  0  0  0  0  0  0
   40.5134  -21.2112   33.7771 C   0  0  0  0  0  0  0  0  0  0  0  0
   41.0487  -20.2088   32.7609 C   0  0  0  0  0  0  0  0  0  0  0  0
   41.5925  -19.1346   33.7133 C   0  0  0  0  0  0  0  0  0  0  0  0
 17 18  1  0  0  0
 18  1  1  0  0  0
  1  2  2  0  0  0
  2  3  1  0  0  0
  3  4  2  0  0  0
  4 19  1  0  0  0
 19 21  1  0  0  0
 21 22  1  0  0  0
 22 23  1  0  0  0
 23 24  1  0  0  0
 24 25  1  0  0  0
 25 26  1  0  0  0
 26 27  1  0  0  0
 25 28  1  0  0  0
 28 29  1  0  0  0
 28 30  1  0  0  0
  4  5  1  0  0  0
  5  6  2  0  0  0
  6  7  1  0  0  0
  7  8  2  0  0  0
  8  9  1  0  0  0
  9 10  2  0  0  0
 10 31  1  0  0  0
 31 32  1  0  0  0
 32 33  1  0  0  0
 33 34  1  0  0  0
 34 35  1  0  0  0
 35 36  1  0  0  0
 36 37  1  0  0  0
 37 38  1  0  0  0
 38 39  1  0  0  0
  6 11  1  0  0  0
 11 12  2  0  0  0
 12 13  1  0  0  0
 13 14  2  0  0  0
 14 15  1  0  0  0
 14 16  1  0  0  0
 10  1  1  0  0  0
 39 35  1  0  0  0
 16 11  1  0  0  0
  8  3  1  0  0  0
 27 22  1  0  0  0
 19 20  1  0  0  0
M  END
> <minimizedAffinity>
-6.91715

> <CNNscore>
0.4706341028

> <CNNaffinity>
6.7068138123

> <CNN_VS>
3.1564552784

> <CNNaffinity_variance>
0.1909914911

$$$$
[H]c1c(-c2nc3c([H])c(OC([H])([H])C([H])([H])C([H])([H])N4C([H])([H])C([H])([H])C([H])([H])C4([H])[H])c(OC([H])([H])[H])c([H])c3c(N([H])C([H])([H])C3([H])C([H])([H])C([H])([H])N(C([H])(C([H])([H])[H])C([H])([H])[H])C([H])([H])C3([H])[H])c2[H])oc(C([H])([H])[H])c1[H]


 39 43  0  0  0  0  0  0  0  0999 V2000
   32.4190  -20.8943   34.4688 C   0  0  0  0  0  0  0  0  0  0  0  0
   33.7002  -20.3745   34.3147 C   0  0  0  0  0  0  0  0  0  0  0  0
   34.0010  -19.0937   34.7571 C   0  0  0  0  0  0  0  0  0  0  0  0
   35.2693  -18.5695   34.6082 C   0  0  0  0  0  0  0  0  0  0  0  0
   35.4595  -17.2676   35.0905 C   0  0  0  0  0  0  0  0  0  0  0  0
   34.4660  -16.5308   35.6805 C   0  0  0  0  0  0  0  0  0  0  0  0
   33.2635  -17.0853   35.7981 N   0  0  0  0  0  0  0  0  0  0  0  0
   33.0046  -18.3372   35.3563 C   0  0  0  0  0  0  0  0  0  0  0  0
   31.7444  -18.8967   35.4880 C   0  0  0  0  0  0  0  0  0  0  0  0
   31.4143  -20.1627   35.0601 C   0  0  0  0  0  0  0  0  0  0  0  0
   34.7443  -15.1755   36.1580 C   0  0  0  0  0  0  0  0  0  0  0  0
   35.9652  -14.5774   36.2082 C   0  0  0  0  0  0  0  0  0  0  0  0
   35.7837  -13.3266   36.7128 C   0  0  0  0  0  0  0  0  0  0  0  0
   34.4269  -13.1987   36.9601 C   0  0  0  0  0  0  0  0  0  0  0  0
   33.8228  -11.9634   37.5206 C   0  0  0  0  0  0  0  0  0  0  0  0
   33.8703  -14.3234   36.6115 O   0  0  0  0  0  0  0  0  0  0  0  0
   32.1001  -23.2521   34.9405 C   0  0  0  0  0  0  0  0  0  0  0  0
   32.1263  -22.1747   34.0238 O   0  0  0  0  0  0  0  0  0  0  0  0
   36.3385  -19.2722   34.0121 N   0  0  0  0  0  0  0  0  0  0  0  0
   36.2485  -20.2346   33.6673 H   0  0  0  0  0  0  0  0  0  0  0  0
   37.6151  -18.6313   33.8725 C   0  0  0  0  0  0  0  0  0  0  0  0
   38.6930  -19.2747   34.7014 C   0  0  0  0  0  0  0  0  0  0  0  0
   38.6404  -20.7662   34.6815 C   0  0  0  0  0  0  0  0  0  0  0  0
   39.7544  -21.3767   35.4455 C   0  0  0  0  0  0  0  0  0  0  0  0
   40.2277  -20.7029   36.5926 N   0  0  0  0  0  0  0  0  0  0  0  0
   39.8902  -19.3730   36.8023 C   0  0  0  0  0  0  0  0  0  0  0  0
   38.6224  -18.8632   36.1556 C   0  0  0  0  0  0  0  0  0  0  0  0
   40.5337  -21.5244   37.7192 C   0  0  0  0  0  0  0  0  0  0  0  0
   39.5244  -22.6273   37.9354 C   0  0  0  0  0  0  0  0  0  0  0  0
   41.8684  -22.2103   37.5208 C   0  0  0  0  0  0  0  0  0  0  0  0
   30.1390  -20.6824   35.2128 O   0  0  0  0  0  0  0  0  0  0  0  0
   29.1168  -20.0594   35.9283 C   0  0  0  0  0  0  0  0  0  0  0  0
   28.4440  -21.0313   36.9007 C   0  0  0  0  0  0  0  0  0  0  0  0
   29.4000  -22.1803   37.0946 C   0  0  0  0  0  0  0  0  0  0  0  0
   28.7693  -23.4628   37.1333 N   0  0  0  0  0  0  0  0  0  0  0  0
   28.3008  -23.7887   35.8161 C   0  0  0  0  0  0  0  0  0  0  0  0
   28.8869  -25.1417   35.4583 C   0  0  0  0  0  0  0  0  0  0  0  0
   29.0566  -25.7493   36.8461 C   0  0  0  0  0  0  0  0  0  0  0  0
   29.5967  -24.5280   37.6031 C   0  0  0  0  0  0  0  0  0  0  0  0
 17 18  1  0  0  0
 18  1  1  0  0  0
  1  2  2  0  0  0
  2  3  1  0  0  0
  3  4  2  0  0  0
  4 19  1  0  0  0
 19 21  1  0  0  0
 21 22  1  0  0  0
 22 23  1  0  0  0
 23 24  1  0  0  0
 24 25  1  0  0  0
 25 26  1  0  0  0
 26 27  1  0  0  0
 25 28  1  0  0  0
 28 29  1  0  0  0
 28 30  1  0  0  0
  4  5  1  0  0  0
  5  6  2  0  0  0
  6  7  1  0  0  0
  7  8  2  0  0  0
  8  9  1  0  0  0
  9 10  2  0  0  0
 10 31  1  0  0  0
 31 32  1  0  0  0
 32 33  1  0  0  0
 33 34  1  0  0  0
 34 35  1  0  0  0
 35 36  1  0  0  0
 36 37  1  0  0  0
 37 38  1  0  0  0
 38 39  1  0  0  0
  6 11  1  0  0  0
 11 12  2  0  0  0
 12 13  1  0  0  0
 13 14  2  0  0  0
 14 15  1  0  0  0
 14 16  1  0  0  0
 10  1  1  0  0  0
 39 35  1  0  0  0
 16 11  1  0  0  0
  8  3  1  0  0  0
 27 22  1  0  0  0
 19 20  1  0  0  0
M  END
> <minimizedAffinity>
-6.43276

> <CNNscore>
0.4101709425

> <CNNaffinity>
6.4139418602

> <CNN_VS>
2.6308126450

> <CNNaffinity_variance>
0.4227997661

$$$$
[H]c1c(-c2nc3c([H])c(OC([H])([H])C([H])([H])C([H])([H])N4C([H])([H])C([H])([H])C([H])([H])C4([H])[H])c(OC([H])([H])[H])c([H])c3c(N([H])C([H])([H])C3([H])C([H])([H])C([H])([H])N(C([H])(C([H])([H])[H])C([H])([H])[H])C([H])([H])C3([H])[H])c2[H])oc(C([H])([H])[H])c1[H]


 39 43  0  0  0  0  0  0  0  0999 V2000
   32.5212  -20.5100   34.4713 C   0  0  0  0  0  0  0  0  0  0  0  0
   33.8917  -20.3285   34.6270 C   0  0  0  0  0  0  0  0  0  0  0  0
   34.3991  -19.1083   35.0515 C   0  0  0  0  0  0  0  0  0  0  0  0
   35.7575  -18.9189   35.2085 C   0  0  0  0  0  0  0  0  0  0  0  0
   36.1573  -17.6473   35.6411 C   0  0  0  0  0  0  0  0  0  0  0  0
   35.2772  -16.6297   35.9017 C   0  0  0  0  0  0  0  0  0  0  0  0
   33.9801  -16.8677   35.7337 N   0  0  0  0  0  0  0  0  0  0  0  0
   33.5193  -18.0699   35.3190 C   0  0  0  0  0  0  0  0  0  0  0  0
   32.1635  -18.2973   35.1497 C   0  0  0  0  0  0  0  0  0  0  0  0
   31.6291  -19.4947   34.7306 C   0  0  0  0  0  0  0  0  0  0  0  0
   35.7745  -15.3279   36.3493 C   0  0  0  0  0  0  0  0  0  0  0  0
   35.0798  -14.1582   36.3429 C   0  0  0  0  0  0  0  0  0  0  0  0
   35.9036  -13.1944   36.8374 C   0  0  0  0  0  0  0  0  0  0  0  0
   37.1019  -13.8212   37.1364 C   0  0  0  0  0  0  0  0  0  0  0  0
   38.2693  -13.0996   37.7037 C   0  0  0  0  0  0  0  0  0  0  0  0
   36.9605  -15.0780   36.8255 O   0  0  0  0  0  0  0  0  0  0  0  0
   32.0126  -22.8369   34.9303 C   0  0  0  0  0  0  0  0  0  0  0  0
   32.0222  -21.7322   34.0464 O   0  0  0  0  0  0  0  0  0  0  0  0
   36.7187  -19.9221   34.9598 N   0  0  0  0  0  0  0  0  0  0  0  0
   36.8190  -20.3830   34.0484 H   0  0  0  0  0  0  0  0  0  0  0  0
   37.6037  -20.3300   36.0135 C   0  0  0  0  0  0  0  0  0  0  0  0
   36.9122  -21.1129   37.0961 C   0  0  0  0  0  0  0  0  0  0  0  0
   36.4733  -20.2680   38.2455 C   0  0  0  0  0  0  0  0  0  0  0  0
   35.7317  -21.0487   39.2642 C   0  0  0  0  0  0  0  0  0  0  0  0
   36.1050  -22.3934   39.4794 N   0  0  0  0  0  0  0  0  0  0  0  0
   36.9029  -23.0470   38.5506 C   0  0  0  0  0  0  0  0  0  0  0  0
   37.7947  -22.1973   37.6742 C   0  0  0  0  0  0  0  0  0  0  0  0
   36.1318  -22.8255   40.8396 C   0  0  0  0  0  0  0  0  0  0  0  0
   37.3767  -23.6085   41.1845 C   0  0  0  0  0  0  0  0  0  0  0  0
   36.1163  -21.6313   41.7696 C   0  0  0  0  0  0  0  0  0  0  0  0
   30.2645  -19.6776   34.5751 O   0  0  0  0  0  0  0  0  0  0  0  0
   29.3579  -19.7659   35.6311 C   0  0  0  0  0  0  0  0  0  0  0  0
   28.9283  -21.2142   35.8779 C   0  0  0  0  0  0  0  0  0  0  0  0
   28.3197  -21.2560   37.2562 C   0  0  0  0  0  0  0  0  0  0  0  0
   28.2988  -22.5588   37.8446 N   0  0  0  0  0  0  0  0  0  0  0  0
   29.6393  -23.0707   37.8851 C   0  0  0  0  0  0  0  0  0  0  0  0
   29.9216  -23.4632   39.3233 C   0  0  0  0  0  0  0  0  0  0  0  0
   28.5115  -23.7781   39.8096 C   0  0  0  0  0  0  0  0  0  0  0  0
   27.7445  -22.6181   39.1596 C   0  0  0  0  0  0  0  0  0  0  0  0
 17 18  1  0  0  0
 18  1  1  0  0  0
  1  2  2  0  0  0
  2  3  1  0  0  0
  3  4  2  0  0  0
  4 19  1  0  0  0
 19 21  1  0  0  0
 21 22  1  0  0  0
 22 23  1  0  0  0
 23 24  1  0  0  0
 24 25  1  0  0  0
 25 26  1  0  0  0
 26 27  1  0  0  0
 25 28  1  0  0  0
 28 29  1  0  0  0
 28 30  1  0  0  0
  4  5  1  0  0  0
  5  6  2  0  0  0
  6  7  1  0  0  0
  7  8  2  0  0  0
  8  9  1  0  0  0
  9 10  2  0  0  0
 10 31  1  0  0  0
 31 32  1  0  0  0
 32 33  1  0  0  0
 33 34  1  0  0  0
 34 35  1  0  0  0
 35 36  1  0  0  0
 36 37  1  0  0  0
 37 38  1  0  0  0
 38 39  1  0  0  0
  6 11  1  0  0  0
 11 12  2  0  0  0
 12 13  1  0  0  0
 13 14  2  0  0  0
 14 15  1  0  0  0
 14 16  1  0  0  0
 10  1  1  0  0  0
 39 35  1  0  0  0
 16 11  1  0  0  0
  8  3  1  0  0  0
 27 22  1  0  0  0
 19 20  1  0  0  0
M  END
> <minimizedAffinity>
-6.13384

> <CNNscore>
0.3219544590

> <CNNaffinity>
6.0317878723

> <CNN_VS>
1.9419610500

> <CNNaffinity_variance>
0.3492499888

$$$$
[H]c1c(-c2nc3c([H])c(OC([H])([H])C([H])([H])C([H])([H])N4C([H])([H])C([H])([H])C([H])([H])C4([H])[H])c(OC([H])([H])[H])c([H])c3c(N([H])C([H])([H])C3([H])C([H])([H])C([H])([H])N(C([H])(C([H])([H])[H])C([H])([H])[H])C([H])([H])C3([H])[H])c2[H])oc(C([H])([H])[H])c1[H]


 39 43  0  0  0  0  0  0  0  0999 V2000
   32.6961  -20.6265   34.6806 C   0  0  0  0  0  0  0  0  0  0  0  0
   34.0236  -20.4095   35.0360 C   0  0  0  0  0  0  0  0  0  0  0  0
   34.4659  -19.1377   35.3728 C   0  0  0  0  0  0  0  0  0  0  0  0
   35.7812  -18.9128   35.7265 C   0  0  0  0  0  0  0  0  0  0  0  0
   36.1167  -17.5903   36.0465 C   0  0  0  0  0  0  0  0  0  0  0  0
   35.2160  -16.5578   36.0201 C   0  0  0  0  0  0  0  0  0  0  0  0
   33.9625  -16.8316   35.6724 N   0  0  0  0  0  0  0  0  0  0  0  0
   33.5646  -18.0836   35.3504 C   0  0  0  0  0  0  0  0  0  0  0  0
   32.2534  -18.3478   34.9903 C   0  0  0  0  0  0  0  0  0  0  0  0
   31.7838  -19.5965   34.6511 C   0  0  0  0  0  0  0  0  0  0  0  0
   35.6454  -15.2022   36.3670 C   0  0  0  0  0  0  0  0  0  0  0  0
   36.7326  -14.8717   37.1151 C   0  0  0  0  0  0  0  0  0  0  0  0
   36.7705  -13.5138   37.1978 C   0  0  0  0  0  0  0  0  0  0  0  0
   35.6803  -13.0487   36.4812 C   0  0  0  0  0  0  0  0  0  0  0  0
   35.3705  -11.6040   36.3326 C   0  0  0  0  0  0  0  0  0  0  0  0
   35.0578  -14.0942   36.0168 O   0  0  0  0  0  0  0  0  0  0  0  0
   32.2496  -22.9225   35.3229 C   0  0  0  0  0  0  0  0  0  0  0  0
   32.2620  -21.9001   34.3451 O   0  0  0  0  0  0  0  0  0  0  0  0
   36.7600  -19.9285   35.7761 N   0  0  0  0  0  0  0  0  0  0  0  0
   36.8397  -20.6600   35.0608 H   0  0  0  0  0  0  0  0  0  0  0  0
   37.6939  -19.9577   36.8656 C   0  0  0  0  0  0  0  0  0  0  0  0
   39.1191  -20.1345   36.4177 C   0  0  0  0  0  0  0  0  0  0  0  0
   40.1143  -19.8478   37.4924 C   0  0  0  0  0  0  0  0  0  0  0  0
   41.5063  -20.0986   37.0488 C   0  0  0  0  0  0  0  0  0  0  0  0
   41.8342  -19.8471   35.6986 N   0  0  0  0  0  0  0  0  0  0  0  0
   40.8245  -19.6912   34.7590 C   0  0  0  0  0  0  0  0  0  0  0  0
   39.4723  -19.2326   35.2554 C   0  0  0  0  0  0  0  0  0  0  0  0
   43.0965  -19.2221   35.4671 C   0  0  0  0  0  0  0  0  0  0  0  0
   43.0300  -18.1271   34.4286 C   0  0  0  0  0  0  0  0  0  0  0  0
   43.5978  -18.5667   36.7361 C   0  0  0  0  0  0  0  0  0  0  0  0
   30.4621  -19.8149   34.2972 O   0  0  0  0  0  0  0  0  0  0  0  0
   29.3875  -19.7336   35.1824 C   0  0  0  0  0  0  0  0  0  0  0  0
   29.0928  -21.0898   35.8280 C   0  0  0  0  0  0  0  0  0  0  0  0
   28.2695  -20.8128   37.0598 C   0  0  0  0  0  0  0  0  0  0  0  0
   28.7232  -21.4977   38.2299 N   0  0  0  0  0  0  0  0  0  0  0  0
   27.5860  -22.0312   38.9248 C   0  0  0  0  0  0  0  0  0  0  0  0
   27.8372  -23.5156   39.1137 C   0  0  0  0  0  0  0  0  0  0  0  0
   29.3614  -23.5422   39.1276 C   0  0  0  0  0  0  0  0  0  0  0  0
   29.6515  -22.5558   37.9877 C   0  0  0  0  0  0  0  0  0  0  0  0
 17 18  1  0  0  0
 18  1  1  0  0  0
  1  2  2  0  0  0
  2  3  1  0  0  0
  3  4  2  0  0  0
  4 19  1  0  0  0
 19 21  1  0  0  0
 21 22  1  0  0  0
 22 23  1  0  0  0
 23 24  1  0  0  0
 24 25  1  0  0  0
 25 26  1  0  0  0
 26 27  1  0  0  0
 25 28  1  0  0  0
 28 29  1  0  0  0
 28 30  1  0  0  0
  4  5  1  0  0  0
  5  6  2  0  0  0
  6  7  1  0  0  0
  7  8  2  0  0  0
  8  9  1  0  0  0
  9 10  2  0  0  0
 10 31  1  0  0  0
 31 32  1  0  0  0
 32 33  1  0  0  0
 33 34  1  0  0  0
 34 35  1  0  0  0
 35 36  1  0  0  0
 36 37  1  0  0  0
 37 38  1  0  0  0
 38 39  1  0  0  0
  6 11  1  0  0  0
 11 12  2  0  0  0
 12 13  1  0  0  0
 13 14  2  0  0  0
 14 15  1  0  0  0
 14 16  1  0  0  0
 10  1  1  0  0  0
 39 35  1  0  0  0
 16 11  1  0  0  0
  8  3  1  0  0  0
 27 22  1  0  0  0
 19 20  1  0  0  0
M  END
> <minimizedAffinity>
-6.55269

> <CNNscore>
0.3194648921

> <CNNaffinity>
6.2839651108

> <CNN_VS>
2.0075061321

> <CNNaffinity_variance>
0.1827857792

$$$$
[H]c1c(-c2nc3c([H])c(OC([H])([H])C([H])([H])C([H])([H])N4C([H])([H])C([H])([H])C([H])([H])C4([H])[H])c(OC([H])([H])[H])c([H])c3c(N([H])C([H])([H])C3([H])C([H])([H])C([H])([H])N(C([H])(C([H])([H])[H])C([H])([H])[H])C([H])([H])C3([H])[H])c2[H])oc(C([H])([H])[H])c1[H]


 39 43  0  0  0  0  0  0  0  0999 V2000
   36.0029  -14.6026   36.3469 C   0  0  0  0  0  0  0  0  0  0  0  0
   36.6872  -15.8094   36.2423 C   0  0  0  0  0  0  0  0  0  0  0  0
   35.9944  -17.0070   36.1311 C   0  0  0  0  0  0  0  0  0  0  0  0
   36.6648  -18.2093   36.0271 C   0  0  0  0  0  0  0  0  0  0  0  0
   35.8646  -19.3548   35.9207 C   0  0  0  0  0  0  0  0  0  0  0  0
   34.4947  -19.3184   35.9168 C   0  0  0  0  0  0  0  0  0  0  0  0
   33.9014  -18.1332   36.0196 N   0  0  0  0  0  0  0  0  0  0  0  0
   34.6075  -16.9844   36.1257 C   0  0  0  0  0  0  0  0  0  0  0  0
   33.9699  -15.7594   36.2322 C   0  0  0  0  0  0  0  0  0  0  0  0
   34.6275  -14.5552   36.3437 C   0  0  0  0  0  0  0  0  0  0  0  0
   33.7293  -20.5608   35.8033 C   0  0  0  0  0  0  0  0  0  0  0  0
   33.6137  -21.5221   36.7590 C   0  0  0  0  0  0  0  0  0  0  0  0
   32.8186  -22.5039   36.2527 C   0  0  0  0  0  0  0  0  0  0  0  0
   32.4667  -22.1009   34.9752 C   0  0  0  0  0  0  0  0  0  0  0  0
   31.5955  -22.9106   34.0861 C   0  0  0  0  0  0  0  0  0  0  0  0
   33.0359  -20.9474   34.7711 O   0  0  0  0  0  0  0  0  0  0  0  0
   37.8433  -13.3357   37.2911 C   0  0  0  0  0  0  0  0  0  0  0  0
   36.7024  -13.4102   36.4579 O   0  0  0  0  0  0  0  0  0  0  0  0
   38.0720  -18.3197   36.0231 N   0  0  0  0  0  0  0  0  0  0  0  0
   38.6882  -17.5945   36.4070 H   0  0  0  0  0  0  0  0  0  0  0  0
   38.6877  -19.4887   35.4625 C   0  0  0  0  0  0  0  0  0  0  0  0
   39.3348  -20.3691   36.4966 C   0  0  0  0  0  0  0  0  0  0  0  0
   40.2540  -19.6280   37.4095 C   0  0  0  0  0  0  0  0  0  0  0  0
   40.8226  -20.5020   38.4631 C   0  0  0  0  0  0  0  0  0  0  0  0
   41.0833  -21.8525   38.1438 N   0  0  0  0  0  0  0  0  0  0  0  0
   40.5253  -22.4141   37.0038 C   0  0  0  0  0  0  0  0  0  0  0  0
   40.1525  -21.4800   35.8751 C   0  0  0  0  0  0  0  0  0  0  0  0
   42.3020  -22.3924   38.6549 C   0  0  0  0  0  0  0  0  0  0  0  0
   42.4451  -22.2131   40.1479 C   0  0  0  0  0  0  0  0  0  0  0  0
   42.3607  -23.8839   38.4039 C   0  0  0  0  0  0  0  0  0  0  0  0
   33.9480  -13.3521   36.4478 O   0  0  0  0  0  0  0  0  0  0  0  0
   34.4793  -12.1962   37.0192 C   0  0  0  0  0  0  0  0  0  0  0  0
   33.4249  -11.4399   37.8311 C   0  0  0  0  0  0  0  0  0  0  0  0
   32.0863  -12.0136   37.4426 C   0  0  0  0  0  0  0  0  0  0  0  0
   30.9992  -11.5543   38.2496 N   0  0  0  0  0  0  0  0  0  0  0  0
   30.2177  -10.6221   37.4875 C   0  0  0  0  0  0  0  0  0  0  0  0
   28.7841  -11.1184   37.5137 C   0  0  0  0  0  0  0  0  0  0  0  0
   28.7754  -11.8796   38.8345 C   0  0  0  0  0  0  0  0  0  0  0  0
   30.1375  -12.5815   38.7420 C   0  0  0  0  0  0  0  0  0  0  0  0
 17 18  1  0  0  0
 18  1  1  0  0  0
  1  2  2  0  0  0
  2  3  1  0  0  0
  3  4  2  0  0  0
  4 19  1  0  0  0
 19 21  1  0  0  0
 21 22  1  0  0  0
 22 23  1  0  0  0
 23 24  1  0  0  0
 24 25  1  0  0  0
 25 26  1  0  0  0
 26 27  1  0  0  0
 25 28  1  0  0  0
 28 29  1  0  0  0
 28 30  1  0  0  0
  4  5  1  0  0  0
  5  6  2  0  0  0
  6  7  1  0  0  0
  7  8  2  0  0  0
  8  9  1  0  0  0
  9 10  2  0  0  0
 10 31  1  0  0  0
 31 32  1  0  0  0
 32 33  1  0  0  0
 33 34  1  0  0  0
 34 35  1  0  0  0
 35 36  1  0  0  0
 36 37  1  0  0  0
 37 38  1  0  0  0
 38 39  1  0  0  0
  6 11  1  0  0  0
 11 12  2  0  0  0
 12 13  1  0  0  0
 13 14  2  0  0  0
 14 15  1  0  0  0
 14 16  1  0  0  0
 10  1  1  0  0  0
 39 35  1  0  0  0
 16 11  1  0  0  0
  8  3  1  0  0  0
 27 22  1  0  0  0
 19 20  1  0  0  0
M  END
> <minimizedAffinity>
-6.68508

> <CNNscore>
0.2925115228

> <CNNaffinity>
6.5072011948

> <CNN_VS>
1.9034312963

> <CNNaffinity_variance>
0.1306548268

$$$$
[H]c1c(OC([H])([H])C([H])([H])C([H])([H])N2C([H])([H])C([H])([H])C([H])([H])C([H])([H])C2([H])[H])c(OC([H])([H])[H])c([H])c2c(N([H])C3([H])C([H])([H])C([H])([H])N(C4([H])C([H])([H])C([H])([H])C([H])([H])C([H])([H])C4([H])[H])C([H])([H])C3([H])[H])nc(N3C([H])([H])C([H])([H])N(C([H])(C([H])([H])[H])C([H])([H])[H])C([H])([H])C([H])([H])C3([H])[H])nc12


 46 51  0  0  0  0  0  0  0  0999 V2000
   36.0388  -14.1379   36.6304 C   0  0  0  0  0  0  0  0  0  0  0  0
   36.3793  -15.4956   36.6195 C   0  0  0  0  0  0  0  0  0  0  0  0
   35.4928  -16.4973   36.3346 C   0  0  0  0  0  0  0  0  0  0  0  0
   35.8455  -17.8280   36.3249 C   0  0  0  0  0  0  0  0  0  0  0  0
   34.8621  -18.7276   36.0193 N   0  0  0  0  0  0  0  0  0  0  0  0
   33.5997  -18.3865   35.7354 C   0  0  0  0  0  0  0  0  0  0  0  0
   33.3042  -17.0768   35.7577 N   0  0  0  0  0  0  0  0  0  0  0  0
   34.1794  -16.0972   36.0424 C   0  0  0  0  0  0  0  0  0  0  0  0
   33.8070  -14.7787   36.0428 C   0  0  0  0  0  0  0  0  0  0  0  0
   34.7389  -13.8126   36.3363 C   0  0  0  0  0  0  0  0  0  0  0  0
   32.5999  -19.3678   35.4226 N   0  0  0  0  0  0  0  0  0  0  0  0
   33.0506  -20.7228   35.5098 C   0  0  0  0  0  0  0  0  0  0  0  0
   32.5038  -21.6237   34.4188 C   0  0  0  0  0  0  0  0  0  0  0  0
   31.1359  -22.1408   34.8322 C   0  0  0  0  0  0  0  0  0  0  0  0
   30.5602  -21.1323   35.7074 N   0  0  0  0  0  0  0  0  0  0  0  0
   30.2668  -19.9151   35.0329 C   0  0  0  0  0  0  0  0  0  0  0  0
   31.3079  -18.8571   35.0714 C   0  0  0  0  0  0  0  0  0  0  0  0
   29.5489  -21.6251   36.5829 C   0  0  0  0  0  0  0  0  0  0  0  0
   30.1222  -22.5228   37.6662 C   0  0  0  0  0  0  0  0  0  0  0  0
   28.5067  -22.4027   35.7885 C   0  0  0  0  0  0  0  0  0  0  0  0
   38.1379  -13.5578   37.6955 C   0  0  0  0  0  0  0  0  0  0  0  0
   37.0058  -13.1887   36.9314 O   0  0  0  0  0  0  0  0  0  0  0  0
   37.1446  -18.2384   36.6268 N   0  0  0  0  0  0  0  0  0  0  0  0
   37.5819  -17.9319   37.5347 H   0  0  0  0  0  0  0  0  0  0  0  0
   37.9758  -19.0675   35.7964 C   0  0  0  0  0  0  0  0  0  0  0  0
   39.4098  -19.1334   36.3493 C   0  0  0  0  0  0  0  0  0  0  0  0
   40.1955  -20.1084   35.4745 C   0  0  0  0  0  0  0  0  0  0  0  0
   39.3714  -20.6939   34.4767 N   0  0  0  0  0  0  0  0  0  0  0  0
   38.7490  -19.8042   33.5966 C   0  0  0  0  0  0  0  0  0  0  0  0
   38.0991  -18.6647   34.3727 C   0  0  0  0  0  0  0  0  0  0  0  0
   39.7605  -21.9771   34.0449 C   0  0  0  0  0  0  0  0  0  0  0  0
   41.2465  -22.2318   34.1440 C   0  0  0  0  0  0  0  0  0  0  0  0
   41.5059  -23.7024   34.2190 C   0  0  0  0  0  0  0  0  0  0  0  0
   40.5906  -24.4867   33.3001 C   0  0  0  0  0  0  0  0  0  0  0  0
   39.1917  -24.3431   33.8006 C   0  0  0  0  0  0  0  0  0  0  0  0
   39.0175  -23.0966   34.6763 C   0  0  0  0  0  0  0  0  0  0  0  0
   34.3455  -12.4824   36.3315 O   0  0  0  0  0  0  0  0  0  0  0  0
   33.9053  -11.8710   37.5246 C   0  0  0  0  0  0  0  0  0  0  0  0
   32.5419  -12.4377   37.8654 C   0  0  0  0  0  0  0  0  0  0  0  0
   31.4910  -11.5697   37.2266 C   0  0  0  0  0  0  0  0  0  0  0  0
   30.1970  -11.9514   37.7183 N   0  0  0  0  0  0  0  0  0  0  0  0
   30.2701  -12.6468   38.9568 C   0  0  0  0  0  0  0  0  0  0  0  0
   29.2614  -12.0368   39.9384 C   0  0  0  0  0  0  0  0  0  0  0  0
   27.8739  -12.1831   39.3144 C   0  0  0  0  0  0  0  0  0  0  0  0
   27.8422  -11.3801   38.0423 C   0  0  0  0  0  0  0  0  0  0  0  0
   29.2291  -10.9062   37.6434 C   0  0  0  0  0  0  0  0  0  0  0  0
 21 22  1  0  0  0
 22  1  1  0  0  0
  1  2  2  0  0  0
  2  3  1  0  0  0
  3  4  2  0  0  0
  4 23  1  0  0  0
 23 25  1  0  0  0
 25 26  1  0  0  0
 26 27  1  0  0  0
 27 28  1  0  0  0
 28 29  1  0  0  0
 29 30  1  0  0  0
 28 31  1  0  0  0
 31 32  1  0  0  0
 32 33  1  0  0  0
 33 34  1  0  0  0
 34 35  1  0  0  0
 35 36  1  0  0  0
  4  5  1  0  0  0
  5  6  2  0  0  0
  6  7  1  0  0  0
  7  8  2  0  0  0
  8  9  1  0  0  0
  9 10  2  0  0  0
 10 37  1  0  0  0
 37 38  1  0  0  0
 38 39  1  0  0  0
 39 40  1  0  0  0
 40 41  1  0  0  0
 41 42  1  0  0  0
 42 43  1  0  0  0
 43 44  1  0  0  0
 44 45  1  0  0  0
 45 46  1  0  0  0
  6 11  1  0  0  0
 11 12  1  0  0  0
 12 13  1  0  0  0
 13 14  1  0  0  0
 14 15  1  0  0  0
 15 16  1  0  0  0
 16 17  1  0  0  0
 15 18  1  0  0  0
 18 19  1  0  0  0
 18 20  1  0  0  0
 10  1  1  0  0  0
 46 41  1  0  0  0
 17 11  1  0  0  0
  8  3  1  0  0  0
 30 25  1  0  0  0
 36 31  1  0  0  0
 23 24  1  0  0  0
M  END
> <minimizedAffinity>
-9.18333

> <CNNscore>
0.6263645887

> <CNNaffinity>
7.7305159569

> <CNN_VS>
4.8421216011

> <CNNaffinity_variance>
0.1377427727

$$$$
[H]c1c(OC([H])([H])C([H])([H])C([H])([H])N2C([H])([H])C([H])([H])C([H])([H])C([H])([H])C2([H])[H])c(OC([H])([H])[H])c([H])c2c(N([H])C3([H])C([H])([H])C([H])([H])N(C4([H])C([H])([H])C([H])([H])C([H])([H])C([H])([H])C4([H])[H])C([H])([H])C3([H])[H])nc(N3C([H])([H])C([H])([H])N(C([H])(C([H])([H])[H])C([H])([H])[H])C([H])([H])C([H])([H])C3([H])[H])nc12


 46 51  0  0  0  0  0  0  0  0999 V2000
   36.2421  -14.5447   36.2853 C   0  0  0  0  0  0  0  0  0  0  0  0
   36.5295  -15.8238   35.7944 C   0  0  0  0  0  0  0  0  0  0  0  0
   35.5868  -16.7997   35.6234 C   0  0  0  0  0  0  0  0  0  0  0  0
   35.8863  -18.0519   35.1359 C   0  0  0  0  0  0  0  0  0  0  0  0
   34.8480  -18.9326   35.0102 N   0  0  0  0  0  0  0  0  0  0  0  0
   33.5812  -18.6447   35.3310 C   0  0  0  0  0  0  0  0  0  0  0  0
   33.3388  -17.4109   35.8023 N   0  0  0  0  0  0  0  0  0  0  0  0
   34.2708  -16.4572   35.9718 C   0  0  0  0  0  0  0  0  0  0  0  0
   33.9494  -15.2163   36.4555 C   0  0  0  0  0  0  0  0  0  0  0  0
   34.9367  -14.2729   36.6075 C   0  0  0  0  0  0  0  0  0  0  0  0
   32.5237  -19.6041   35.1841 N   0  0  0  0  0  0  0  0  0  0  0  0
   32.9427  -20.9686   35.2803 C   0  0  0  0  0  0  0  0  0  0  0  0
   32.2444  -21.8963   34.3043 C   0  0  0  0  0  0  0  0  0  0  0  0
   30.9214  -22.3487   34.8996 C   0  0  0  0  0  0  0  0  0  0  0  0
   30.4830  -21.2849   35.7888 N   0  0  0  0  0  0  0  0  0  0  0  0
   30.1461  -20.0884   35.0979 C   0  0  0  0  0  0  0  0  0  0  0  0
   31.2141  -19.0655   34.9643 C   0  0  0  0  0  0  0  0  0  0  0  0
   29.5697  -21.7055   36.7994 C   0  0  0  0  0  0  0  0  0  0  0  0
   30.2339  -22.6049   37.8280 C   0  0  0  0  0  0  0  0  0  0  0  0
   28.3996  -22.4484   36.1664 C   0  0  0  0  0  0  0  0  0  0  0  0
   38.0162  -13.5762   37.6240 C   0  0  0  0  0  0  0  0  0  0  0  0
   37.2644  -13.6164   36.4261 O   0  0  0  0  0  0  0  0  0  0  0  0
   37.1928  -18.4079   34.7991 N   0  0  0  0  0  0  0  0  0  0  0  0
   37.5151  -18.2950   33.8027 H   0  0  0  0  0  0  0  0  0  0  0  0
   38.1793  -18.9298   35.7058 C   0  0  0  0  0  0  0  0  0  0  0  0
   39.5052  -19.2026   34.9749 C   0  0  0  0  0  0  0  0  0  0  0  0
   40.5225  -19.6541   36.0209 C   0  0  0  0  0  0  0  0  0  0  0  0
   39.9711  -19.6277   37.3297 N   0  0  0  0  0  0  0  0  0  0  0  0
   38.8359  -20.4174   37.5323 C   0  0  0  0  0  0  0  0  0  0  0  0
   37.8289  -20.1884   36.4112 C   0  0  0  0  0  0  0  0  0  0  0  0
   40.8943  -19.4162   38.3726 C   0  0  0  0  0  0  0  0  0  0  0  0
   40.8663  -20.4842   39.4408 C   0  0  0  0  0  0  0  0  0  0  0  0
   42.1748  -20.5138   40.1639 C   0  0  0  0  0  0  0  0  0  0  0  0
   42.7233  -19.1207   40.3997 C   0  0  0  0  0  0  0  0  0  0  0  0
   43.0590  -18.5205   39.0749 C   0  0  0  0  0  0  0  0  0  0  0  0
   42.2925  -19.1894   37.9278 C   0  0  0  0  0  0  0  0  0  0  0  0
   34.5940  -13.0212   37.0976 O   0  0  0  0  0  0  0  0  0  0  0  0
   33.3012  -12.5032   36.8718 C   0  0  0  0  0  0  0  0  0  0  0  0
   32.8402  -11.8236   38.1453 C   0  0  0  0  0  0  0  0  0  0  0  0
   31.9376  -12.7694   38.8913 C   0  0  0  0  0  0  0  0  0  0  0  0
   30.5752  -12.5270   38.5079 N   0  0  0  0  0  0  0  0  0  0  0  0
   29.6452  -13.0434   39.4520 C   0  0  0  0  0  0  0  0  0  0  0  0
   28.6043  -11.9645   39.7770 C   0  0  0  0  0  0  0  0  0  0  0  0
   27.9039  -11.5992   38.4686 C   0  0  0  0  0  0  0  0  0  0  0  0
   28.9257  -11.0064   37.5366 C   0  0  0  0  0  0  0  0  0  0  0  0
   30.3388  -11.1929   38.0617 C   0  0  0  0  0  0  0  0  0  0  0  0
 21 22  1  0  0  0
 22  1  1  0  0  0
  1  2  2  0  0  0
  2  3  1  0  0  0
  3  4  2  0  0  0
  4 23  1  0  0  0
 23 25  1  0  0  0
 25 26  1  0  0  0
 26 27  1  0  0  0
 27 28  1  0  0  0
 28 29  1  0  0  0
 29 30  1  0  0  0
 28 31  1  0  0  0
 31 32  1  0  0  0
 32 33  1  0  0  0
 33 34  1  0  0  0
 34 35  1  0  0  0
 35 36  1  0  0  0
  4  5  1  0  0  0
  5  6  2  0  0  0
  6  7  1  0  0  0
  7  8  2  0  0  0
  8  9  1  0  0  0
  9 10  2  0  0  0
 10 37  1  0  0  0
 37 38  1  0  0  0
 38 39  1  0  0  0
 39 40  1  0  0  0
 40 41  1  0  0  0
 41 42  1  0  0  0
 42 43  1  0  0  0
 43 44  1  0  0  0
 44 45  1  0  0  0
 45 46  1  0  0  0
  6 11  1  0  0  0
 11 12  1  0  0  0
 12 13  1  0  0  0
 13 14  1  0  0  0
 14 15  1  0  0  0
 15 16  1  0  0  0
 16 17  1  0  0  0
 15 18  1  0  0  0
 18 19  1  0  0  0
 18 20  1  0  0  0
 10  1  1  0  0  0
 46 41  1  0  0  0
 17 11  1  0  0  0
  8  3  1  0  0  0
 30 25  1  0  0  0
 36 31  1  0  0  0
 23 24  1  0  0  0
M  END
> <minimizedAffinity>
-8.58557

> <CNNscore>
0.3898442090

> <CNNaffinity>
7.2930321693

> <CNN_VS>
2.8431463242

> <CNNaffinity_variance>
0.3892430365

$$$$
[H]c1c(OC([H])([H])C([H])([H])C([H])([H])N2C([H])([H])C([H])([H])C([H])([H])C([H])([H])C2([H])[H])c(OC([H])([H])[H])c([H])c2c(N([H])C3([H])C([H])([H])C([H])([H])N(C4([H])C([H])([H])C([H])([H])C([H])([H])C([H])([H])C4([H])[H])C([H])([H])C3([H])[H])nc(N3C([H])([H])C([H])([H])N(C([H])(C([H])([H])[H])C([H])([H])[H])C([H])([H])C([H])([H])C3([H])[H])nc12


 46 51  0  0  0  0  0  0  0  0999 V2000
   33.9619  -14.3169   36.2311 C   0  0  0  0  0  0  0  0  0  0  0  0
   33.7658  -15.6130   35.7399 C   0  0  0  0  0  0  0  0  0  0  0  0
   34.7715  -16.5279   35.5919 C   0  0  0  0  0  0  0  0  0  0  0  0
   34.5604  -17.8002   35.1103 C   0  0  0  0  0  0  0  0  0  0  0  0
   35.6533  -18.6165   35.0165 N   0  0  0  0  0  0  0  0  0  0  0  0
   36.8925  -18.2483   35.3618 C   0  0  0  0  0  0  0  0  0  0  0  0
   37.0482  -16.9979   35.8259 N   0  0  0  0  0  0  0  0  0  0  0  0
   36.0559  -16.1020   35.9654 C   0  0  0  0  0  0  0  0  0  0  0  0
   36.2885  -14.8419   36.4501 C   0  0  0  0  0  0  0  0  0  0  0  0
   35.2408  -13.9622   36.5784 C   0  0  0  0  0  0  0  0  0  0  0  0
   38.0108  -19.1405   35.2431 N   0  0  0  0  0  0  0  0  0  0  0  0
   38.8435  -19.2061   36.4046 C   0  0  0  0  0  0  0  0  0  0  0  0
   40.3257  -19.2931   36.0941 C   0  0  0  0  0  0  0  0  0  0  0  0
   40.7029  -20.7440   35.8453 C   0  0  0  0  0  0  0  0  0  0  0  0
   39.5114  -21.3979   35.3282 N   0  0  0  0  0  0  0  0  0  0  0  0
   39.1343  -20.9257   34.0409 C   0  0  0  0  0  0  0  0  0  0  0  0
   38.1331  -19.8301   33.9930 C   0  0  0  0  0  0  0  0  0  0  0  0
   39.4944  -22.8119   35.5089 C   0  0  0  0  0  0  0  0  0  0  0  0
   38.7896  -23.2129   36.7936 C   0  0  0  0  0  0  0  0  0  0  0  0
   40.9195  -23.3507   35.5309 C   0  0  0  0  0  0  0  0  0  0  0  0
   32.2684  -13.2619   37.6081 C   0  0  0  0  0  0  0  0  0  0  0  0
   32.8805  -13.4545   36.3472 O   0  0  0  0  0  0  0  0  0  0  0  0
   33.2905  -18.2301   34.7235 N   0  0  0  0  0  0  0  0  0  0  0  0
   32.7170  -17.6241   34.0806 H   0  0  0  0  0  0  0  0  0  0  0  0
   32.6636  -19.4601   35.1258 C   0  0  0  0  0  0  0  0  0  0  0  0
   33.1722  -19.9079   36.5069 C   0  0  0  0  0  0  0  0  0  0  0  0
   32.3876  -21.1570   36.9031 C   0  0  0  0  0  0  0  0  0  0  0  0
   31.4058  -21.4861   35.9308 N   0  0  0  0  0  0  0  0  0  0  0  0
   31.8799  -21.7246   34.6377 C   0  0  0  0  0  0  0  0  0  0  0  0
   32.8467  -20.6225   34.2204 C   0  0  0  0  0  0  0  0  0  0  0  0
   30.2745  -22.1695   36.4183 C   0  0  0  0  0  0  0  0  0  0  0  0
   30.5606  -23.0563   37.6077 C   0  0  0  0  0  0  0  0  0  0  0  0
   29.3042  -23.2829   38.3861 C   0  0  0  0  0  0  0  0  0  0  0  0
   28.1036  -23.4732   37.4809 C   0  0  0  0  0  0  0  0  0  0  0  0
   27.8531  -22.1897   36.7613 C   0  0  0  0  0  0  0  0  0  0  0  0
   29.1037  -21.3042   36.7091 C   0  0  0  0  0  0  0  0  0  0  0  0
   35.4935  -12.6906   37.0717 O   0  0  0  0  0  0  0  0  0  0  0  0
   34.4221  -11.8482   37.4370 C   0  0  0  0  0  0  0  0  0  0  0  0
   34.6988  -10.4685   36.8749 C   0  0  0  0  0  0  0  0  0  0  0  0
   33.6072   -9.5387   37.3329 C   0  0  0  0  0  0  0  0  0  0  0  0
   33.7091   -8.2982   36.6170 N   0  0  0  0  0  0  0  0  0  0  0  0
   34.9987   -8.1025   36.0502 C   0  0  0  0  0  0  0  0  0  0  0  0
   34.8465   -7.6836   34.5823 C   0  0  0  0  0  0  0  0  0  0  0  0
   34.0411   -6.3848   34.5611 C   0  0  0  0  0  0  0  0  0  0  0  0
   32.6723   -6.6699   35.1169 C   0  0  0  0  0  0  0  0  0  0  0  0
   32.6013   -8.0470   35.7541 C   0  0  0  0  0  0  0  0  0  0  0  0
 21 22  1  0  0  0
 22  1  1  0  0  0
  1  2  2  0  0  0
  2  3  1  0  0  0
  3  4  2  0  0  0
  4 23  1  0  0  0
 23 25  1  0  0  0
 25 26  1  0  0  0
 26 27  1  0  0  0
 27 28  1  0  0  0
 28 29  1  0  0  0
 29 30  1  0  0  0
 28 31  1  0  0  0
 31 32  1  0  0  0
 32 33  1  0  0  0
 33 34  1  0  0  0
 34 35  1  0  0  0
 35 36  1  0  0  0
  4  5  1  0  0  0
  5  6  2  0  0  0
  6  7  1  0  0  0
  7  8  2  0  0  0
  8  9  1  0  0  0
  9 10  2  0  0  0
 10 37  1  0  0  0
 37 38  1  0  0  0
 38 39  1  0  0  0
 39 40  1  0  0  0
 40 41  1  0  0  0
 41 42  1  0  0  0
 42 43  1  0  0  0
 43 44  1  0  0  0
 44 45  1  0  0  0
 45 46  1  0  0  0
  6 11  1  0  0  0
 11 12  1  0  0  0
 12 13  1  0  0  0
 13 14  1  0  0  0
 14 15  1  0  0  0
 15 16  1  0  0  0
 16 17  1  0  0  0
 15 18  1  0  0  0
 18 19  1  0  0  0
 18 20  1  0  0  0
 10  1  1  0  0  0
 46 41  1  0  0  0
 17 11  1  0  0  0
  8  3  1  0  0  0
 30 25  1  0  0  0
 36 31  1  0  0  0
 23 24  1  0  0  0
M  END
> <minimizedAffinity>
-7.81433

> <CNNscore>
0.3863786459

> <CNNaffinity>
7.1693658829

> <CNN_VS>
2.7700898647

> <CNNaffinity_variance>
0.0255056657

$$$$
[H]c1c(OC([H])([H])C([H])([H])C([H])([H])N2C([H])([H])C([H])([H])C([H])([H])C([H])([H])C2([H])[H])c(OC([H])([H])[H])c([H])c2c(N([H])C3([H])C([H])([H])C([H])([H])N(C4([H])C([H])([H])C([H])([H])C([H])([H])C([H])([H])C4([H])[H])C([H])([H])C3([H])[H])nc(N3C([H])([H])C([H])([H])N(C([H])(C([H])([H])[H])C([H])([H])[H])C([H])([H])C([H])([H])C3([H])[H])nc12


 46 51  0  0  0  0  0  0  0  0999 V2000
   34.1923  -14.7182   36.1961 C   0  0  0  0  0  0  0  0  0  0  0  0
   34.2306  -15.9873   35.6066 C   0  0  0  0  0  0  0  0  0  0  0  0
   35.2177  -16.9038   35.8434 C   0  0  0  0  0  0  0  0  0  0  0  0
   35.2382  -18.1494   35.2576 C   0  0  0  0  0  0  0  0  0  0  0  0
   36.2813  -18.9709   35.5843 N   0  0  0  0  0  0  0  0  0  0  0  0
   37.2635  -18.6317   36.4275 C   0  0  0  0  0  0  0  0  0  0  0  0
   37.1999  -17.4065   36.9735 N   0  0  0  0  0  0  0  0  0  0  0  0
   36.2287  -16.5087   36.7335 C   0  0  0  0  0  0  0  0  0  0  0  0
   36.2267  -15.2756   37.3305 C   0  0  0  0  0  0  0  0  0  0  0  0
   35.2098  -14.3930   37.0567 C   0  0  0  0  0  0  0  0  0  0  0  0
   38.3407  -19.5278   36.7385 N   0  0  0  0  0  0  0  0  0  0  0  0
   39.4581  -19.4439   35.8489 C   0  0  0  0  0  0  0  0  0  0  0  0
   40.0820  -20.7862   35.5175 C   0  0  0  0  0  0  0  0  0  0  0  0
   41.0803  -21.1580   36.6012 C   0  0  0  0  0  0  0  0  0  0  0  0
   40.6190  -20.5207   37.8242 N   0  0  0  0  0  0  0  0  0  0  0  0
   39.3925  -21.0594   38.3015 C   0  0  0  0  0  0  0  0  0  0  0  0
   38.1464  -20.3695   37.8818 C   0  0  0  0  0  0  0  0  0  0  0  0
   41.6386  -20.3188   38.7998 C   0  0  0  0  0  0  0  0  0  0  0  0
   42.2659  -18.9395   38.6902 C   0  0  0  0  0  0  0  0  0  0  0  0
   42.7247  -21.3761   38.6437 C   0  0  0  0  0  0  0  0  0  0  0  0
   32.4681  -13.9741   34.6628 C   0  0  0  0  0  0  0  0  0  0  0  0
   33.1499  -13.8520   35.8965 O   0  0  0  0  0  0  0  0  0  0  0  0
   34.2459  -18.5480   34.3611 N   0  0  0  0  0  0  0  0  0  0  0  0
   34.3594  -18.3264   33.3376 H   0  0  0  0  0  0  0  0  0  0  0  0
   33.0426  -19.2568   34.7038 C   0  0  0  0  0  0  0  0  0  0  0  0
   32.9896  -20.6208   33.9943 C   0  0  0  0  0  0  0  0  0  0  0  0
   31.7404  -21.3477   34.4883 C   0  0  0  0  0  0  0  0  0  0  0  0
   31.0535  -20.5919   35.4754 N   0  0  0  0  0  0  0  0  0  0  0  0
   30.6281  -19.3187   35.0862 C   0  0  0  0  0  0  0  0  0  0  0  0
   31.7615  -18.5760   34.3883 C   0  0  0  0  0  0  0  0  0  0  0  0
   30.3108  -21.3438   36.4069 C   0  0  0  0  0  0  0  0  0  0  0  0
   28.9013  -21.6531   35.9590 C   0  0  0  0  0  0  0  0  0  0  0  0
   28.3935  -22.8617   36.6783 C   0  0  0  0  0  0  0  0  0  0  0  0
   28.8231  -22.8780   38.1317 C   0  0  0  0  0  0  0  0  0  0  0  0
   30.3073  -23.0300   38.1783 C   0  0  0  0  0  0  0  0  0  0  0  0
   30.9736  -22.5889   36.8698 C   0  0  0  0  0  0  0  0  0  0  0  0
   35.2224  -13.1490   37.6703 O   0  0  0  0  0  0  0  0  0  0  0  0
   34.0578  -12.3525   37.6775 C   0  0  0  0  0  0  0  0  0  0  0  0
   34.3976  -11.0209   37.0390 C   0  0  0  0  0  0  0  0  0  0  0  0
   33.4936   -9.9677   37.6216 C   0  0  0  0  0  0  0  0  0  0  0  0
   33.7302   -8.7179   36.9554 N   0  0  0  0  0  0  0  0  0  0  0  0
   35.0148   -8.6610   36.3477 C   0  0  0  0  0  0  0  0  0  0  0  0
   34.8692   -8.1577   34.9058 C   0  0  0  0  0  0  0  0  0  0  0  0
   34.2370   -6.7677   34.9709 C   0  0  0  0  0  0  0  0  0  0  0  0
   32.8621   -6.9026   35.5668 C   0  0  0  0  0  0  0  0  0  0  0  0
   32.6359   -8.2879   36.1475 C   0  0  0  0  0  0  0  0  0  0  0  0
 21 22  1  0  0  0
 22  1  1  0  0  0
  1  2  2  0  0  0
  2  3  1  0  0  0
  3  4  2  0  0  0
  4 23  1  0  0  0
 23 25  1  0  0  0
 25 26  1  0  0  0
 26 27  1  0  0  0
 27 28  1  0  0  0
 28 29  1  0  0  0
 29 30  1  0  0  0
 28 31  1  0  0  0
 31 32  1  0  0  0
 32 33  1  0  0  0
 33 34  1  0  0  0
 34 35  1  0  0  0
 35 36  1  0  0  0
  4  5  1  0  0  0
  5  6  2  0  0  0
  6  7  1  0  0  0
  7  8  2  0  0  0
  8  9  1  0  0  0
  9 10  2  0  0  0
 10 37  1  0  0  0
 37 38  1  0  0  0
 38 39  1  0  0  0
 39 40  1  0  0  0
 40 41  1  0  0  0
 41 42  1  0  0  0
 42 43  1  0  0  0
 43 44  1  0  0  0
 44 45  1  0  0  0
 45 46  1  0  0  0
  6 11  1  0  0  0
 11 12  1  0  0  0
 12 13  1  0  0  0
 13 14  1  0  0  0
 14 15  1  0  0  0
 15 16  1  0  0  0
 16 17  1  0  0  0
 15 18  1  0  0  0
 18 19  1  0  0  0
 18 20  1  0  0  0
 10  1  1  0  0  0
 46 41  1  0  0  0
 17 11  1  0  0  0
  8  3  1  0  0  0
 30 25  1  0  0  0
 36 31  1  0  0  0
 23 24  1  0  0  0
M  END
> <minimizedAffinity>
-7.02776

> <CNNscore>
0.3721209168

> <CNNaffinity>
7.0914559364

> <CNN_VS>
2.6388790607

> <CNNaffinity_variance>
0.0518045537

$$$$
[H]c1c(OC([H])([H])C([H])([H])C([H])([H])N2C([H])([H])C([H])([H])C([H])([H])C([H])([H])C2([H])[H])c(OC([H])([H])[H])c([H])c2c(N([H])C3([H])C([H])([H])C([H])([H])N(C4([H])C([H])([H])C([H])([H])C([H])([H])C([H])([H])C4([H])[H])C([H])([H])C3([H])[H])nc(N3C([H])([H])C([H])([H])N(C([H])(C([H])([H])[H])C([H])([H])[H])C([H])([H])C([H])([H])C3([H])[H])nc12


 46 51  0  0  0  0  0  0  0  0999 V2000
   36.0720  -14.4373   36.2766 C   0  0  0  0  0  0  0  0  0  0  0  0
   36.4092  -15.7867   36.1184 C   0  0  0  0  0  0  0  0  0  0  0  0
   35.4897  -16.7801   35.9233 C   0  0  0  0  0  0  0  0  0  0  0  0
   35.8390  -18.1024   35.7660 C   0  0  0  0  0  0  0  0  0  0  0  0
   34.8202  -18.9939   35.5739 N   0  0  0  0  0  0  0  0  0  0  0  0
   33.5270  -18.6527   35.5322 C   0  0  0  0  0  0  0  0  0  0  0  0
   33.2362  -17.3513   35.6907 N   0  0  0  0  0  0  0  0  0  0  0  0
   34.1447  -16.3801   35.8861 C   0  0  0  0  0  0  0  0  0  0  0  0
   33.7744  -15.0697   36.0368 C   0  0  0  0  0  0  0  0  0  0  0  0
   34.7402  -14.1118   36.2304 C   0  0  0  0  0  0  0  0  0  0  0  0
   32.4910  -19.6255   35.3304 N   0  0  0  0  0  0  0  0  0  0  0  0
   32.9242  -20.9848   35.4378 C   0  0  0  0  0  0  0  0  0  0  0  0
   32.2850  -21.9153   34.4247 C   0  0  0  0  0  0  0  0  0  0  0  0
   30.9422  -22.3898   34.9549 C   0  0  0  0  0  0  0  0  0  0  0  0
   30.4481  -21.3381   35.8291 N   0  0  0  0  0  0  0  0  0  0  0  0
   30.1270  -20.1418   35.1304 C   0  0  0  0  0  0  0  0  0  0  0  0
   31.1857  -19.1034   35.0529 C   0  0  0  0  0  0  0  0  0  0  0  0
   29.4947  -21.7779   36.7934 C   0  0  0  0  0  0  0  0  0  0  0  0
   30.1072  -22.7315   37.8051 C   0  0  0  0  0  0  0  0  0  0  0  0
   28.3300  -22.4694   36.0955 C   0  0  0  0  0  0  0  0  0  0  0  0
   37.8960  -13.5726   37.6192 C   0  0  0  0  0  0  0  0  0  0  0  0
   37.0739  -13.4963   36.4704 O   0  0  0  0  0  0  0  0  0  0  0  0
   37.1717  -18.5133   35.8145 N   0  0  0  0  0  0  0  0  0  0  0  0
   37.9339  -17.8041   35.6549 H   0  0  0  0  0  0  0  0  0  0  0  0
   37.6266  -19.8531   36.0710 C   0  0  0  0  0  0  0  0  0  0  0  0
   37.5943  -20.1634   37.5775 C   0  0  0  0  0  0  0  0  0  0  0  0
   37.9912  -21.6278   37.7539 C   0  0  0  0  0  0  0  0  0  0  0  0
   38.2051  -22.2643   36.5022 N   0  0  0  0  0  0  0  0  0  0  0  0
   39.1870  -21.6961   35.6858 C   0  0  0  0  0  0  0  0  0  0  0  0
   38.9979  -20.1856   35.6092 C   0  0  0  0  0  0  0  0  0  0  0  0
   37.9671  -23.6526   36.4793 C   0  0  0  0  0  0  0  0  0  0  0  0
   36.5568  -24.0383   36.8600 C   0  0  0  0  0  0  0  0  0  0  0  0
   36.2262  -25.3810   36.2910 C   0  0  0  0  0  0  0  0  0  0  0  0
   37.3987  -26.3375   36.3785 C   0  0  0  0  0  0  0  0  0  0  0  0
   38.4842  -25.8284   35.4893 C   0  0  0  0  0  0  0  0  0  0  0  0
   38.3458  -24.3268   35.2120 C   0  0  0  0  0  0  0  0  0  0  0  0
   34.3483  -12.7896   36.3803 O   0  0  0  0  0  0  0  0  0  0  0  0
   33.7989  -12.3494   37.6031 C   0  0  0  0  0  0  0  0  0  0  0  0
   32.3022  -12.5811   37.5540 C   0  0  0  0  0  0  0  0  0  0  0  0
   31.6134  -11.2435   37.5056 C   0  0  0  0  0  0  0  0  0  0  0  0
   30.4559  -11.2747   38.3547 N   0  0  0  0  0  0  0  0  0  0  0  0
   29.3341  -10.6268   37.7677 C   0  0  0  0  0  0  0  0  0  0  0  0
   28.1049  -11.5365   37.8900 C   0  0  0  0  0  0  0  0  0  0  0  0
   27.8701  -11.7860   39.3795 C   0  0  0  0  0  0  0  0  0  0  0  0
   29.0616  -12.5233   39.9275 C   0  0  0  0  0  0  0  0  0  0  0  0
   30.2080  -12.5557   38.9314 C   0  0  0  0  0  0  0  0  0  0  0  0
 21 22  1  0  0  0
 22  1  1  0  0  0
  1  2  2  0  0  0
  2  3  1  0  0  0
  3  4  2  0  0  0
  4 23  1  0  0  0
 23 25  1  0  0  0
 25 26  1  0  0  0
 26 27  1  0  0  0
 27 28  1  0  0  0
 28 29  1  0  0  0
 29 30  1  0  0  0
 28 31  1  0  0  0
 31 32  1  0  0  0
 32 33  1  0  0  0
 33 34  1  0  0  0
 34 35  1  0  0  0
 35 36  1  0  0  0
  4  5  1  0  0  0
  5  6  2  0  0  0
  6  7  1  0  0  0
  7  8  2  0  0  0
  8  9  1  0  0  0
  9 10  2  0  0  0
 10 37  1  0  0  0
 37 38  1  0  0  0
 38 39  1  0  0  0
 39 40  1  0  0  0
 40 41  1  0  0  0
 41 42  1  0  0  0
 42 43  1  0  0  0
 43 44  1  0  0  0
 44 45  1  0  0  0
 45 46  1  0  0  0
  6 11  1  0  0  0
 11 12  1  0  0  0
 12 13  1  0  0  0
 13 14  1  0  0  0
 14 15  1  0  0  0
 15 16  1  0  0  0
 16 17  1  0  0  0
 15 18  1  0  0  0
 18 19  1  0  0  0
 18 20  1  0  0  0
 10  1  1  0  0  0
 46 41  1  0  0  0
 17 11  1  0  0  0
  8  3  1  0  0  0
 30 25  1  0  0  0
 36 31  1  0  0  0
 23 24  1  0  0  0
M  END
> <minimizedAffinity>
-8.08130

> <CNNscore>
0.2807040215

> <CNNaffinity>
7.1764402390

> <CNN_VS>
2.0144555569

> <CNNaffinity_variance>
0.2706484199

$$$$
[H]c1c(OC([H])([H])C([H])([H])C([H])([H])N2C([H])([H])C([H])([H])C([H])([H])C([H])([H])C2([H])[H])c(OC([H])([H])[H])c([H])c2c(N([H])C3([H])C([H])([H])C([H])([H])N(C4([H])C([H])([H])C([H])([H])C([H])([H])C([H])([H])C4([H])[H])C([H])([H])C3([H])[H])nc(N3C([H])([H])C([H])([H])N(C([H])(C([H])([H])[H])C([H])([H])[H])C([H])([H])C([H])([H])C3([H])[H])nc12


 46 51  0  0  0  0  0  0  0  0999 V2000
   37.0564  -18.9383   35.6477 C   0  0  0  0  0  0  0  0  0  0  0  0
   35.7864  -18.4805   35.2772 C   0  0  0  0  0  0  0  0  0  0  0  0
   35.2587  -17.2893   35.6931 C   0  0  0  0  0  0  0  0  0  0  0  0
   34.0088  -16.8525   35.3161 C   0  0  0  0  0  0  0  0  0  0  0  0
   33.6040  -15.6397   35.8005 N   0  0  0  0  0  0  0  0  0  0  0  0
   34.3464  -14.8716   36.6064 C   0  0  0  0  0  0  0  0  0  0  0  0
   35.5580  -15.3403   36.9463 N   0  0  0  0  0  0  0  0  0  0  0  0
   36.0694  -16.5141   36.5371 C   0  0  0  0  0  0  0  0  0  0  0  0
   37.3176  -16.9273   36.9222 C   0  0  0  0  0  0  0  0  0  0  0  0
   37.7988  -18.1339   36.4745 C   0  0  0  0  0  0  0  0  0  0  0  0
   33.8774  -13.6050   37.0924 N   0  0  0  0  0  0  0  0  0  0  0  0
   34.3080  -12.4780   36.3234 C   0  0  0  0  0  0  0  0  0  0  0  0
   34.6707  -11.2657   37.1598 C   0  0  0  0  0  0  0  0  0  0  0  0
   33.4121  -10.4703   37.4645 C   0  0  0  0  0  0  0  0  0  0  0  0
   32.3128  -11.4221   37.4695 N   0  0  0  0  0  0  0  0  0  0  0  0
   32.3886  -12.3510   38.5436 C   0  0  0  0  0  0  0  0  0  0  0  0
   33.0548  -13.6485   38.2649 C   0  0  0  0  0  0  0  0  0  0  0  0
   31.0335  -10.8403   37.2308 C   0  0  0  0  0  0  0  0  0  0  0  0
   31.0204   -9.3513   37.5320 C   0  0  0  0  0  0  0  0  0  0  0  0
   29.9794  -11.5329   38.0859 C   0  0  0  0  0  0  0  0  0  0  0  0
   38.0659  -20.2530   33.8787 C   0  0  0  0  0  0  0  0  0  0  0  0
   37.5105  -20.1625   35.1767 O   0  0  0  0  0  0  0  0  0  0  0  0
   33.1889  -17.6207   34.4884 N   0  0  0  0  0  0  0  0  0  0  0  0
   32.9733  -17.2762   33.5167 H   0  0  0  0  0  0  0  0  0  0  0  0
   32.5888  -18.8796   34.8386 C   0  0  0  0  0  0  0  0  0  0  0  0
   32.9835  -19.9734   33.8314 C   0  0  0  0  0  0  0  0  0  0  0  0
   32.3931  -21.2913   34.3291 C   0  0  0  0  0  0  0  0  0  0  0  0
   31.7267  -21.1274   35.5726 N   0  0  0  0  0  0  0  0  0  0  0  0
   30.6758  -20.2060   35.5877 C   0  0  0  0  0  0  0  0  0  0  0  0
   31.1064  -18.9060   34.9186 C   0  0  0  0  0  0  0  0  0  0  0  0
   31.6931  -22.2687   36.3978 C   0  0  0  0  0  0  0  0  0  0  0  0
   30.3843  -22.4571   37.1289 C   0  0  0  0  0  0  0  0  0  0  0  0
   30.2144  -23.8945   37.5040 C   0  0  0  0  0  0  0  0  0  0  0  0
   31.5172  -24.5177   37.9639 C   0  0  0  0  0  0  0  0  0  0  0  0
   32.4517  -24.5585   36.8007 C   0  0  0  0  0  0  0  0  0  0  0  0
   32.0764  -23.5343   35.7232 C   0  0  0  0  0  0  0  0  0  0  0  0
   39.0649  -18.5369   36.8732 O   0  0  0  0  0  0  0  0  0  0  0  0
   40.1036  -18.6455   35.9244 C   0  0  0  0  0  0  0  0  0  0  0  0
   41.2232  -19.4550   36.5469 C   0  0  0  0  0  0  0  0  0  0  0  0
   42.1741  -18.5086   37.2294 C   0  0  0  0  0  0  0  0  0  0  0  0
   42.8343  -17.7037   36.2404 N   0  0  0  0  0  0  0  0  0  0  0  0
   43.3794  -16.5095   36.7876 C   0  0  0  0  0  0  0  0  0  0  0  0
   44.8291  -16.3520   36.3112 C   0  0  0  0  0  0  0  0  0  0  0  0
   44.8016  -16.2868   34.7844 C   0  0  0  0  0  0  0  0  0  0  0  0
   44.2722  -17.5963   34.2662 C   0  0  0  0  0  0  0  0  0  0  0  0
   43.6962  -18.4499   35.3829 C   0  0  0  0  0  0  0  0  0  0  0  0
 21 22  1  0  0  0
 22  1  1  0  0  0
  1  2  2  0  0  0
  2  3  1  0  0  0
  3  4  2  0  0  0
  4 23  1  0  0  0
 23 25  1  0  0  0
 25 26  1  0  0  0
 26 27  1  0  0  0
 27 28  1  0  0  0
 28 29  1  0  0  0
 29 30  1  0  0  0
 28 31  1  0  0  0
 31 32  1  0  0  0
 32 33  1  0  0  0
 33 34  1  0  0  0
 34 35  1  0  0  0
 35 36  1  0  0  0
  4  5  1  0  0  0
  5  6  2  0  0  0
  6  7  1  0  0  0
  7  8  2  0  0  0
  8  9  1  0  0  0
  9 10  2  0  0  0
 10 37  1  0  0  0
 37 38  1  0  0  0
 38 39  1  0  0  0
 39 40  1  0  0  0
 40 41  1  0  0  0
 41 42  1  0  0  0
 42 43  1  0  0  0
 43 44  1  0  0  0
 44 45  1  0  0  0
 45 46  1  0  0  0
  6 11  1  0  0  0
 11 12  1  0  0  0
 12 13  1  0  0  0
 13 14  1  0  0  0
 14 15  1  0  0  0
 15 16  1  0  0  0
 16 17  1  0  0  0
 15 18  1  0  0  0
 18 19  1  0  0  0
 18 20  1  0  0  0
 10  1  1  0  0  0
 46 41  1  0  0  0
 17 11  1  0  0  0
  8  3  1  0  0  0
 30 25  1  0  0  0
 36 31  1  0  0  0
 23 24  1  0  0  0
M  END
> <minimizedAffinity>
-7.77701

> <CNNscore>
0.2276256830

> <CNNaffinity>
6.9490609169

> <CNN_VS>
1.5817847252

> <CNNaffinity_variance>
0.2401683778

$$$$
[H]c1c(OC([H])([H])C([H])([H])C([H])([H])N2C([H])([H])C([H])([H])C([H])([H])C([H])([H])C2([H])[H])c(OC([H])([H])[H])c([H])c2c(N([H])C3([H])C([H])([H])C([H])([H])N(C4([H])C([H])([H])C([H])([H])C([H])([H])C([H])([H])C4([H])[H])C([H])([H])C3([H])[H])nc(N3C([H])([H])C([H])([H])N(C([H])(C([H])([H])[H])C([H])([H])[H])C([H])([H])C([H])([H])C3([H])[H])nc12


 46 51  0  0  0  0  0  0  0  0999 V2000
   31.8129  -23.4059   36.4066 C   0  0  0  0  0  0  0  0  0  0  0  0
   32.9409  -22.6132   36.6493 C   0  0  0  0  0  0  0  0  0  0  0  0
   33.2939  -22.1563   37.8891 C   0  0  0  0  0  0  0  0  0  0  0  0
   34.4091  -21.3801   38.1107 C   0  0  0  0  0  0  0  0  0  0  0  0
   34.6492  -20.9941   39.4002 N   0  0  0  0  0  0  0  0  0  0  0  0
   33.8703  -21.3257   40.4366 C   0  0  0  0  0  0  0  0  0  0  0  0
   32.7943  -22.0837   40.1703 N   0  0  0  0  0  0  0  0  0  0  0  0
   32.4506  -22.5264   38.9485 C   0  0  0  0  0  0  0  0  0  0  0  0
   31.3378  -23.3008   38.7517 C   0  0  0  0  0  0  0  0  0  0  0  0
   31.0297  -23.7329   37.4843 C   0  0  0  0  0  0  0  0  0  0  0  0
   34.1615  -20.8942   41.7742 N   0  0  0  0  0  0  0  0  0  0  0  0
   33.9930  -21.9041   42.7735 C   0  0  0  0  0  0  0  0  0  0  0  0
   33.3846  -21.3943   44.0661 C   0  0  0  0  0  0  0  0  0  0  0  0
   34.4829  -20.8239   44.9481 C   0  0  0  0  0  0  0  0  0  0  0  0
   35.5261  -20.3485   44.0535 N   0  0  0  0  0  0  0  0  0  0  0  0
   35.1179  -19.2358   43.2676 C   0  0  0  0  0  0  0  0  0  0  0  0
   34.5743  -19.5294   41.9173 C   0  0  0  0  0  0  0  0  0  0  0  0
   36.8151  -20.2539   44.6551 C   0  0  0  0  0  0  0  0  0  0  0  0
   37.9312  -20.3977   43.6346 C   0  0  0  0  0  0  0  0  0  0  0  0
   36.9712  -21.3302   45.7224 C   0  0  0  0  0  0  0  0  0  0  0  0
   31.7329  -22.9378   34.0292 C   0  0  0  0  0  0  0  0  0  0  0  0
   31.5319  -23.8244   35.1133 O   0  0  0  0  0  0  0  0  0  0  0  0
   35.2470  -20.9950   37.0634 N   0  0  0  0  0  0  0  0  0  0  0  0
   35.7675  -21.7347   36.5237 H   0  0  0  0  0  0  0  0  0  0  0  0
   35.4791  -19.6438   36.6296 C   0  0  0  0  0  0  0  0  0  0  0  0
   34.2154  -19.0517   35.9822 C   0  0  0  0  0  0  0  0  0  0  0  0
   34.5125  -17.5920   35.6448 C   0  0  0  0  0  0  0  0  0  0  0  0
   35.8114  -17.2114   36.0753 N   0  0  0  0  0  0  0  0  0  0  0  0
   36.8732  -17.9512   35.5471 C   0  0  0  0  0  0  0  0  0  0  0  0
   36.5781  -19.4429   35.6517 C   0  0  0  0  0  0  0  0  0  0  0  0
   35.9716  -15.8468   36.3865 C   0  0  0  0  0  0  0  0  0  0  0  0
   34.6787  -15.0651   36.3954 C   0  0  0  0  0  0  0  0  0  0  0  0
   34.8298  -13.8431   37.2437 C   0  0  0  0  0  0  0  0  0  0  0  0
   36.1884  -13.1949   37.0663 C   0  0  0  0  0  0  0  0  0  0  0  0
   37.2246  -14.1296   37.5960 C   0  0  0  0  0  0  0  0  0  0  0  0
   36.7270  -15.5793   37.6362 C   0  0  0  0  0  0  0  0  0  0  0  0
   29.8999  -24.5169   37.3026 O   0  0  0  0  0  0  0  0  0  0  0  0
   28.6190  -23.9252   37.3163 C   0  0  0  0  0  0  0  0  0  0  0  0
   27.8928  -24.4099   38.5548 C   0  0  0  0  0  0  0  0  0  0  0  0
   27.1575  -23.2459   39.1632 C   0  0  0  0  0  0  0  0  0  0  0  0
   27.3816  -23.2319   40.5815 N   0  0  0  0  0  0  0  0  0  0  0  0
   28.4700  -24.0620   40.9675 C   0  0  0  0  0  0  0  0  0  0  0  0
   29.3924  -23.2787   41.9104 C   0  0  0  0  0  0  0  0  0  0  0  0
   28.5607  -22.8728   43.1268 C   0  0  0  0  0  0  0  0  0  0  0  0
   27.4651  -21.9519   42.6627 C   0  0  0  0  0  0  0  0  0  0  0  0
   27.3614  -21.9226   41.1475 C   0  0  0  0  0  0  0  0  0  0  0  0
 21 22  1  0  0  0
 22  1  1  0  0  0
  1  2  2  0  0  0
  2  3  1  0  0  0
  3  4  2  0  0  0
  4 23  1  0  0  0
 23 25  1  0  0  0
 25 26  1  0  0  0
 26 27  1  0  0  0
 27 28  1  0  0  0
 28 29  1  0  0  0
 29 30  1  0  0  0
 28 31  1  0  0  0
 31 32  1  0  0  0
 32 33  1  0  0  0
 33 34  1  0  0  0
 34 35  1  0  0  0
 35 36  1  0  0  0
  4  5  1  0  0  0
  5  6  2  0  0  0
  6  7  1  0  0  0
  7  8  2  0  0  0
  8  9  1  0  0  0
  9 10  2  0  0  0
 10 37  1  0  0  0
 37 38  1  0  0  0
 38 39  1  0  0  0
 39 40  1  0  0  0
 40 41  1  0  0  0
 41 42  1  0  0  0
 42 43  1  0  0  0
 43 44  1  0  0  0
 44 45  1  0  0  0
 45 46  1  0  0  0
  6 11  1  0  0  0
 11 12  1  0  0  0
 12 13  1  0  0  0
 13 14  1  0  0  0
 14 15  1  0  0  0
 15 16  1  0  0  0
 16 17  1  0  0  0
 15 18  1  0  0  0
 18 19  1  0  0  0
 18 20  1  0  0  0
 10  1  1  0  0  0
 46 41  1  0  0  0
 17 11  1  0  0  0
  8  3  1  0  0  0
 30 25  1  0  0  0
 36 31  1  0  0  0
 23 24  1  0  0  0
M  END
> <minimizedAffinity>
-5.62615

> <CNNscore>
0.1669441164

> <CNNaffinity>
6.1128129959

> <CNN_VS>
1.0204981565

> <CNNaffinity_variance>
0.3866275847

$$$$
[H]c1c(OC([H])([H])C([H])([H])C([H])([H])N2C([H])([H])C([H])([H])C([H])([H])C([H])([H])C2([H])[H])c(OC([H])([H])[H])c([H])c2c(N([H])C3([H])C([H])([H])C([H])([H])N(C4([H])C([H])([H])C([H])([H])C([H])([H])C([H])([H])C4([H])[H])C([H])([H])C3([H])[H])nc(N3C([H])([H])C([H])([H])N(C([H])(C([H])([H])[H])C([H])([H])[H])C([H])([H])C([H])([H])C3([H])[H])nc12


 46 51  0  0  0  0  0  0  0  0999 V2000
   32.6057  -21.1470   35.4586 C   0  0  0  0  0  0  0  0  0  0  0  0
   33.6855  -20.5129   36.0844 C   0  0  0  0  0  0  0  0  0  0  0  0
   33.9513  -20.6120   37.4222 C   0  0  0  0  0  0  0  0  0  0  0  0
   35.0202  -19.9843   38.0211 C   0  0  0  0  0  0  0  0  0  0  0  0
   35.1736  -20.1702   39.3670 N   0  0  0  0  0  0  0  0  0  0  0  0
   34.3533  -20.9161   40.1162 C   0  0  0  0  0  0  0  0  0  0  0  0
   33.3252  -21.5081   39.4872 N   0  0  0  0  0  0  0  0  0  0  0  0
   33.0672  -21.4035   38.1721 C   0  0  0  0  0  0  0  0  0  0  0  0
   31.9992  -22.0400   37.5967 C   0  0  0  0  0  0  0  0  0  0  0  0
   31.7787  -21.9061   36.2471 C   0  0  0  0  0  0  0  0  0  0  0  0
   34.5532  -21.0802   41.5282 N   0  0  0  0  0  0  0  0  0  0  0  0
   34.5837  -22.4409   41.9691 C   0  0  0  0  0  0  0  0  0  0  0  0
   33.8861  -22.6729   43.2958 C   0  0  0  0  0  0  0  0  0  0  0  0
   34.8510  -22.3719   44.4306 C   0  0  0  0  0  0  0  0  0  0  0  0
   35.7825  -21.3750   43.9275 N   0  0  0  0  0  0  0  0  0  0  0  0
   35.1660  -20.1193   43.6720 C   0  0  0  0  0  0  0  0  0  0  0  0
   34.6918  -19.8723   42.2867 C   0  0  0  0  0  0  0  0  0  0  0  0
   37.0275  -21.3344   44.6207 C   0  0  0  0  0  0  0  0  0  0  0  0
   37.4052  -22.6906   45.1920 C   0  0  0  0  0  0  0  0  0  0  0  0
   36.9599  -20.3162   45.7523 C   0  0  0  0  0  0  0  0  0  0  0  0
   32.1717  -19.7006   33.5621 C   0  0  0  0  0  0  0  0  0  0  0  0
   32.4131  -20.9896   34.0930 O   0  0  0  0  0  0  0  0  0  0  0  0
   35.8978  -19.1843   37.2881 N   0  0  0  0  0  0  0  0  0  0  0  0
   36.7156  -19.6335   36.7994 H   0  0  0  0  0  0  0  0  0  0  0  0
   35.7948  -17.7594   37.1247 C   0  0  0  0  0  0  0  0  0  0  0  0
   35.1337  -17.4086   35.7806 C   0  0  0  0  0  0  0  0  0  0  0  0
   34.9697  -15.8908   35.7311 C   0  0  0  0  0  0  0  0  0  0  0  0
   35.4084  -15.2795   36.9359 N   0  0  0  0  0  0  0  0  0  0  0  0
   36.7406  -15.5103   37.2902 C   0  0  0  0  0  0  0  0  0  0  0  0
   37.0665  -16.9947   37.1726 C   0  0  0  0  0  0  0  0  0  0  0  0
   34.7789  -14.0623   37.2625 C   0  0  0  0  0  0  0  0  0  0  0  0
   35.5798  -12.8382   36.8844 C   0  0  0  0  0  0  0  0  0  0  0  0
   34.6690  -11.6620   36.7334 C   0  0  0  0  0  0  0  0  0  0  0  0
   33.5831  -11.6472   37.7907 C   0  0  0  0  0  0  0  0  0  0  0  0
   32.6920  -12.8226   37.5615 C   0  0  0  0  0  0  0  0  0  0  0  0
   33.3892  -13.9269   36.7581 C   0  0  0  0  0  0  0  0  0  0  0  0
   30.6933  -22.5579   35.6802 O   0  0  0  0  0  0  0  0  0  0  0  0
   30.0899  -23.6420   36.3521 C   0  0  0  0  0  0  0  0  0  0  0  0
   29.4012  -24.5090   35.3176 C   0  0  0  0  0  0  0  0  0  0  0  0
   29.9809  -25.8960   35.3948 C   0  0  0  0  0  0  0  0  0  0  0  0
   30.3066  -26.3486   34.0716 N   0  0  0  0  0  0  0  0  0  0  0  0
   29.2935  -27.1784   33.5167 C   0  0  0  0  0  0  0  0  0  0  0  0
   28.9684  -26.6970   32.0969 C   0  0  0  0  0  0  0  0  0  0  0  0
   30.2560  -26.7910   31.2788 C   0  0  0  0  0  0  0  0  0  0  0  0
   31.2653  -25.8501   31.8786 C   0  0  0  0  0  0  0  0  0  0  0  0
   30.8036  -25.3150   33.2232 C   0  0  0  0  0  0  0  0  0  0  0  0
 21 22  1  0  0  0
 22  1  1  0  0  0
  1  2  2  0  0  0
  2  3  1  0  0  0
  3  4  2  0  0  0
  4 23  1  0  0  0
 23 25  1  0  0  0
 25 26  1  0  0  0
 26 27  1  0  0  0
 27 28  1  0  0  0
 28 29  1  0  0  0
 29 30  1  0  0  0
 28 31  1  0  0  0
 31 32  1  0  0  0
 32 33  1  0  0  0
 33 34  1  0  0  0
 34 35  1  0  0  0
 35 36  1  0  0  0
  4  5  1  0  0  0
  5  6  2  0  0  0
  6  7  1  0  0  0
  7  8  2  0  0  0
  8  9  1  0  0  0
  9 10  2  0  0  0
 10 37  1  0  0  0
 37 38  1  0  0  0
 38 39  1  0  0  0
 39 40  1  0  0  0
 40 41  1  0  0  0
 41 42  1  0  0  0
 42 43  1  0  0  0
 43 44  1  0  0  0
 44 45  1  0  0  0
 45 46  1  0  0  0
  6 11  1  0  0  0
 11 12  1  0  0  0
 12 13  1  0  0  0
 13 14  1  0  0  0
 14 15  1  0  0  0
 15 16  1  0  0  0
 16 17  1  0  0  0
 15 18  1  0  0  0
 18 19  1  0  0  0
 18 20  1  0  0  0
 10  1  1  0  0  0
 46 41  1  0  0  0
 17 11  1  0  0  0
  8  3  1  0  0  0
 30 25  1  0  0  0
 36 31  1  0  0  0
 23 24  1  0  0  0
M  END
> <minimizedAffinity>
-6.98714

> <CNNscore>
0.1600601077

> <CNNaffinity>
6.2280387878

> <CNN_VS>
0.9968605638

> <CNNaffinity_variance>
0.2710081935

$$$$
[H]c1c(OC([H])([H])C([H])([H])C([H])([H])N2C([H])([H])C([H])([H])C([H])([H])C([H])([H])C2([H])[H])c(OC([H])([H])[H])c([H])c2c(N([H])C3([H])C([H])([H])C([H])([H])N(C4([H])C([H])([H])C([H])([H])C([H])([H])C([H])([H])C4([H])[H])C([H])([H])C3([H])[H])nc(N3C([H])([H])C([H])([H])N(C([H])(C([H])([H])[H])C([H])([H])[H])C([H])([H])C([H])([H])C3([H])[H])nc12


 46 51  0  0  0  0  0  0  0  0999 V2000
   31.0160  -23.2285   36.0849 C   0  0  0  0  0  0  0  0  0  0  0  0
   32.1224  -22.3710   36.0719 C   0  0  0  0  0  0  0  0  0  0  0  0
   32.8011  -21.9921   37.1971 C   0  0  0  0  0  0  0  0  0  0  0  0
   33.8900  -21.1503   37.1661 C   0  0  0  0  0  0  0  0  0  0  0  0
   34.4793  -20.8549   38.3640 N   0  0  0  0  0  0  0  0  0  0  0  0
   34.0593  -21.3329   39.5411 C   0  0  0  0  0  0  0  0  0  0  0  0
   32.9937  -22.1498   39.5202 N   0  0  0  0  0  0  0  0  0  0  0  0
   32.3285  -22.5154   38.4109 C   0  0  0  0  0  0  0  0  0  0  0  0
   31.2491  -23.3574   38.4651 C   0  0  0  0  0  0  0  0  0  0  0  0
   30.6037  -23.7057   37.3031 C   0  0  0  0  0  0  0  0  0  0  0  0
   34.7093  -20.9923   40.7748 N   0  0  0  0  0  0  0  0  0  0  0  0
   33.8777  -20.3032   41.7131 C   0  0  0  0  0  0  0  0  0  0  0  0
   34.5897  -19.1975   42.4691 C   0  0  0  0  0  0  0  0  0  0  0  0
   35.3080  -19.7910   43.6696 C   0  0  0  0  0  0  0  0  0  0  0  0
   35.6374  -21.1629   43.3173 N   0  0  0  0  0  0  0  0  0  0  0  0
   36.6007  -21.2515   42.2749 C   0  0  0  0  0  0  0  0  0  0  0  0
   36.0824  -21.3858   40.8898 C   0  0  0  0  0  0  0  0  0  0  0  0
   35.8418  -22.0219   44.4365 C   0  0  0  0  0  0  0  0  0  0  0  0
   35.7898  -23.4888   44.0448 C   0  0  0  0  0  0  0  0  0  0  0  0
   34.7851  -21.7503   45.5003 C   0  0  0  0  0  0  0  0  0  0  0  0
   30.9676  -24.5272   34.0383 C   0  0  0  0  0  0  0  0  0  0  0  0
   30.3881  -23.5591   34.8918 O   0  0  0  0  0  0  0  0  0  0  0  0
   34.3603  -20.6135   35.9670 N   0  0  0  0  0  0  0  0  0  0  0  0
   34.4445  -21.2379   35.1229 H   0  0  0  0  0  0  0  0  0  0  0  0
   34.7539  -19.2462   35.7583 C   0  0  0  0  0  0  0  0  0  0  0  0
   33.5260  -18.3561   35.5002 C   0  0  0  0  0  0  0  0  0  0  0  0
   34.0181  -16.9142   35.3918 C   0  0  0  0  0  0  0  0  0  0  0  0
   35.4173  -16.8225   35.6178 N   0  0  0  0  0  0  0  0  0  0  0  0
   36.2271  -17.5701   34.7582 C   0  0  0  0  0  0  0  0  0  0  0  0
   35.6925  -18.9923   34.6363 C   0  0  0  0  0  0  0  0  0  0  0  0
   35.8678  -15.5951   36.1424 C   0  0  0  0  0  0  0  0  0  0  0  0
   34.7983  -14.5302   36.2128 C   0  0  0  0  0  0  0  0  0  0  0  0
   35.1628  -13.5118   37.2452 C   0  0  0  0  0  0  0  0  0  0  0  0
   36.6454  -13.1971   37.2317 C   0  0  0  0  0  0  0  0  0  0  0  0
   37.3865  -14.4208   37.6577 C   0  0  0  0  0  0  0  0  0  0  0  0
   36.5607  -15.6961   37.4515 C   0  0  0  0  0  0  0  0  0  0  0  0
   29.5131  -24.5598   37.3756 O   0  0  0  0  0  0  0  0  0  0  0  0
   28.4436  -24.2683   38.2485 C   0  0  0  0  0  0  0  0  0  0  0  0
   28.5518  -25.1909   39.4457 C   0  0  0  0  0  0  0  0  0  0  0  0
   28.1609  -24.4208   40.6787 C   0  0  0  0  0  0  0  0  0  0  0  0
   29.2230  -24.4964   41.6420 N   0  0  0  0  0  0  0  0  0  0  0  0
   30.0110  -25.6707   41.4905 C   0  0  0  0  0  0  0  0  0  0  0  0
   31.4961  -25.2862   41.4976 C   0  0  0  0  0  0  0  0  0  0  0  0
   31.7839  -24.6079   42.8367 C   0  0  0  0  0  0  0  0  0  0  0  0
   30.9675  -23.3463   42.9111 C   0  0  0  0  0  0  0  0  0  0  0  0
   29.9432  -23.2742   41.7917 C   0  0  0  0  0  0  0  0  0  0  0  0
 21 22  1  0  0  0
 22  1  1  0  0  0
  1  2  2  0  0  0
  2  3  1  0  0  0
  3  4  2  0  0  0
  4 23  1  0  0  0
 23 25  1  0  0  0
 25 26  1  0  0  0
 26 27  1  0  0  0
 27 28  1  0  0  0
 28 29  1  0  0  0
 29 30  1  0  0  0
 28 31  1  0  0  0
 31 32  1  0  0  0
 32 33  1  0  0  0
 33 34  1  0  0  0
 34 35  1  0  0  0
 35 36  1  0  0  0
  4  5  1  0  0  0
  5  6  2  0  0  0
  6  7  1  0  0  0
  7  8  2  0  0  0
  8  9  1  0  0  0
  9 10  2  0  0  0
 10 37  1  0  0  0
 37 38  1  0  0  0
 38 39  1  0  0  0
 39 40  1  0  0  0
 40 41  1  0  0  0
 41 42  1  0  0  0
 42 43  1  0  0  0
 43 44  1  0  0  0
 44 45  1  0  0  0
 45 46  1  0  0  0
  6 11  1  0  0  0
 11 12  1  0  0  0
 12 13  1  0  0  0
 13 14  1  0  0  0
 14 15  1  0  0  0
 15 16  1  0  0  0
 16 17  1  0  0  0
 15 18  1  0  0  0
 18 19  1  0  0  0
 18 20  1  0  0  0
 10  1  1  0  0  0
 46 41  1  0  0  0
 17 11  1  0  0  0
  8  3  1  0  0  0
 30 25  1  0  0  0
 36 31  1  0  0  0
 23 24  1  0  0  0
M  END
> <minimizedAffinity>
-6.01922

> <CNNscore>
0.1409634054

> <CNNaffinity>
5.9422426224

> <CNN_VS>
0.8376387358

> <CNNaffinity_variance>
0.8051513433

$$$$
[H]c1c(OC([H])([H])C([H])([H])C([H])([H])N2C([H])([H])C([H])([H])C([H])([H])C([H])([H])C2([H])[H])c(OC([H])([H])[H])c([H])c2c(N([H])C3([H])C([H])([H])C([H])([H])N(C([H])(C([H])([H])[H])C([H])([H])[H])C([H])([H])C3([H])[H])nc(N3C([H])([H])C([H])([H])C([H])([H])C([H])([H])C([H])([H])C3([H])[H])nc12


 40 44  0  0  0  0  0  0  0  0999 V2000
   36.3867  -14.2295   36.5042 C   0  0  0  0  0  0  0  0  0  0  0  0
   36.7058  -15.4376   35.9237 C   0  0  0  0  0  0  0  0  0  0  0  0
   35.7764  -16.4553   35.7626 C   0  0  0  0  0  0  0  0  0  0  0  0
   36.0573  -17.6551   35.1663 C   0  0  0  0  0  0  0  0  0  0  0  0
   35.0701  -18.5503   35.0358 N   0  0  0  0  0  0  0  0  0  0  0  0
   33.8307  -18.3553   35.4489 C   0  0  0  0  0  0  0  0  0  0  0  0
   33.5655  -17.1803   36.0361 N   0  0  0  0  0  0  0  0  0  0  0  0
   34.4808  -16.2112   36.2175 C   0  0  0  0  0  0  0  0  0  0  0  0
   34.1752  -15.0001   36.7986 C   0  0  0  0  0  0  0  0  0  0  0  0
   35.0875  -13.9841   36.9633 C   0  0  0  0  0  0  0  0  0  0  0  0
   32.7676  -19.3480   35.2371 N   0  0  0  0  0  0  0  0  0  0  0  0
   33.1658  -20.5978   35.7049 C   0  0  0  0  0  0  0  0  0  0  0  0
   32.7057  -21.9214   35.2072 C   0  0  0  0  0  0  0  0  0  0  0  0
   31.1382  -22.0567   35.2350 C   0  0  0  0  0  0  0  0  0  0  0  0
   30.6658  -20.7506   35.0021 C   0  0  0  0  0  0  0  0  0  0  0  0
   30.2985  -19.4138   34.7984 C   0  0  0  0  0  0  0  0  0  0  0  0
   31.6437  -18.6324   34.6085 C   0  0  0  0  0  0  0  0  0  0  0  0
   38.4029  -13.2028   37.5327 C   0  0  0  0  0  0  0  0  0  0  0  0
   37.3112  -13.2300   36.6539 O   0  0  0  0  0  0  0  0  0  0  0  0
   37.3481  -17.9759   34.7415 N   0  0  0  0  0  0  0  0  0  0  0  0
   37.8279  -17.3142   34.0530 H   0  0  0  0  0  0  0  0  0  0  0  0
   38.1406  -19.0994   35.1182 C   0  0  0  0  0  0  0  0  0  0  0  0
   39.4573  -19.2619   34.4292 C   0  0  0  0  0  0  0  0  0  0  0  0
   40.0926  -20.5357   34.9734 C   0  0  0  0  0  0  0  0  0  0  0  0
   39.3514  -21.1592   35.9809 N   0  0  0  0  0  0  0  0  0  0  0  0
   38.9578  -20.4095   37.0776 C   0  0  0  0  0  0  0  0  0  0  0  0
   38.3757  -19.0785   36.6114 C   0  0  0  0  0  0  0  0  0  0  0  0
   38.8862  -22.4643   35.7906 C   0  0  0  0  0  0  0  0  0  0  0  0
   39.4615  -23.4232   36.8134 C   0  0  0  0  0  0  0  0  0  0  0  0
   39.1639  -23.0095   34.3932 C   0  0  0  0  0  0  0  0  0  0  0  0
   34.7991  -12.7670   37.5447 O   0  0  0  0  0  0  0  0  0  0  0  0
   34.0582  -11.7311   36.9445 C   0  0  0  0  0  0  0  0  0  0  0  0
   32.8997  -11.3372   37.8421 C   0  0  0  0  0  0  0  0  0  0  0  0
   31.8929  -12.4239   37.9814 C   0  0  0  0  0  0  0  0  0  0  0  0
   30.5389  -12.0803   37.6885 N   0  0  0  0  0  0  0  0  0  0  0  0
   29.7655  -12.4821   38.8789 C   0  0  0  0  0  0  0  0  0  0  0  0
   28.2937  -12.3747   38.6586 C   0  0  0  0  0  0  0  0  0  0  0  0
   27.9885  -10.9832   38.1451 C   0  0  0  0  0  0  0  0  0  0  0  0
   29.2373  -10.1484   38.3234 C   0  0  0  0  0  0  0  0  0  0  0  0
   30.3605  -10.6587   37.4515 C   0  0  0  0  0  0  0  0  0  0  0  0
 18 19  1  0  0  0
 19  1  1  0  0  0
  1  2  2  0  0  0
  2  3  1  0  0  0
  3  4  2  0  0  0
  4 20  1  0  0  0
 20 22  1  0  0  0
 22 23  1  0  0  0
 23 24  1  0  0  0
 24 25  1  0  0  0
 25 26  1  0  0  0
 26 27  1  0  0  0
 25 28  1  0  0  0
 28 29  1  0  0  0
 28 30  1  0  0  0
  4  5  1  0  0  0
  5  6  2  0  0  0
  6  7  1  0  0  0
  7  8  2  0  0  0
  8  9  1  0  0  0
  9 10  2  0  0  0
 10 31  1  0  0  0
 31 32  1  0  0  0
 32 33  1  0  0  0
 33 34  1  0  0  0
 34 35  1  0  0  0
 35 36  1  0  0  0
 36 37  1  0  0  0
 37 38  1  0  0  0
 38 39  1  0  0  0
 39 40  1  0  0  0
  6 11  1  0  0  0
 11 12  1  0  0  0
 12 13  1  0  0  0
 13 14  1  0  0  0
 14 15  1  0  0  0
 15 16  1  0  0  0
 16 17  1  0  0  0
 10  1  1  0  0  0
 40 35  1  0  0  0
 17 11  1  0  0  0
  8  3  1  0  0  0
 27 22  1  0  0  0
 20 21  1  0  0  0
M  END
> <minimizedAffinity>
-7.87271

> <CNNscore>
0.6971597672

> <CNNaffinity>
7.5782995224

> <CNN_VS>
5.2832856178

> <CNNaffinity_variance>
0.0462303162

$$$$
[H]c1c(OC([H])([H])C([H])([H])C([H])([H])N2C([H])([H])C([H])([H])C([H])([H])C([H])([H])C2([H])[H])c(OC([H])([H])[H])c([H])c2c(N([H])C3([H])C([H])([H])C([H])([H])N(C([H])(C([H])([H])[H])C([H])([H])[H])C([H])([H])C3([H])[H])nc(N3C([H])([H])C([H])([H])C([H])([H])C([H])([H])C([H])([H])C3([H])[H])nc12


 40 44  0  0  0  0  0  0  0  0999 V2000
   36.2352  -14.3907   36.5059 C   0  0  0  0  0  0  0  0  0  0  0  0
   36.5753  -15.7259   36.5106 C   0  0  0  0  0  0  0  0  0  0  0  0
   35.6400  -16.7336   36.3231 C   0  0  0  0  0  0  0  0  0  0  0  0
   35.9520  -18.0663   36.2964 C   0  0  0  0  0  0  0  0  0  0  0  0
   34.9694  -18.9482   36.0739 N   0  0  0  0  0  0  0  0  0  0  0  0
   33.7052  -18.6186   35.8784 C   0  0  0  0  0  0  0  0  0  0  0  0
   33.4075  -17.3125   35.9112 N   0  0  0  0  0  0  0  0  0  0  0  0
   34.3157  -16.3434   36.1259 C   0  0  0  0  0  0  0  0  0  0  0  0
   33.9881  -15.0053   36.1261 C   0  0  0  0  0  0  0  0  0  0  0  0
   34.9061  -13.9978   36.3106 C   0  0  0  0  0  0  0  0  0  0  0  0
   32.6695  -19.6198   35.5863 N   0  0  0  0  0  0  0  0  0  0  0  0
   33.0482  -20.8700   36.0693 C   0  0  0  0  0  0  0  0  0  0  0  0
   32.6368  -22.1933   35.5301 C   0  0  0  0  0  0  0  0  0  0  0  0
   31.0725  -22.3444   35.4502 C   0  0  0  0  0  0  0  0  0  0  0  0
   30.6033  -21.0409   35.1970 C   0  0  0  0  0  0  0  0  0  0  0  0
   30.2366  -19.7060   34.9804 C   0  0  0  0  0  0  0  0  0  0  0  0
   31.5834  -18.9096   34.8891 C   0  0  0  0  0  0  0  0  0  0  0  0
   38.2297  -13.3923   37.6021 C   0  0  0  0  0  0  0  0  0  0  0  0
   37.1677  -13.4041   36.6873 O   0  0  0  0  0  0  0  0  0  0  0  0
   37.2502  -18.5181   36.5417 N   0  0  0  0  0  0  0  0  0  0  0  0
   37.6485  -18.3881   37.5248 H   0  0  0  0  0  0  0  0  0  0  0  0
   38.1429  -19.1551   35.6310 C   0  0  0  0  0  0  0  0  0  0  0  0
   38.1129  -20.6491   35.5851 C   0  0  0  0  0  0  0  0  0  0  0  0
   39.1650  -21.0867   34.5732 C   0  0  0  0  0  0  0  0  0  0  0  0
   39.8093  -20.0296   33.9246 N   0  0  0  0  0  0  0  0  0  0  0  0
   39.0372  -19.0608   33.3040 C   0  0  0  0  0  0  0  0  0  0  0  0
   37.9102  -18.6239   34.2349 C   0  0  0  0  0  0  0  0  0  0  0  0
   41.1941  -19.8811   34.0518 C   0  0  0  0  0  0  0  0  0  0  0  0
   41.6959  -20.3911   35.3878 C   0  0  0  0  0  0  0  0  0  0  0  0
   41.6700  -18.4442   33.8625 C   0  0  0  0  0  0  0  0  0  0  0  0
   34.5951  -12.6541   36.3160 O   0  0  0  0  0  0  0  0  0  0  0  0
   34.2788  -11.8944   37.4584 C   0  0  0  0  0  0  0  0  0  0  0  0
   32.8517  -11.3869   37.3627 C   0  0  0  0  0  0  0  0  0  0  0  0
   31.8520  -12.4300   37.7185 C   0  0  0  0  0  0  0  0  0  0  0  0
   30.4778  -12.0669   37.5888 N   0  0  0  0  0  0  0  0  0  0  0  0
   29.8430  -12.4723   38.8574 C   0  0  0  0  0  0  0  0  0  0  0  0
   28.3572  -12.3449   38.8113 C   0  0  0  0  0  0  0  0  0  0  0  0
   28.0127  -10.9442   38.3500 C   0  0  0  0  0  0  0  0  0  0  0  0
   29.2847  -10.1266   38.3893 C   0  0  0  0  0  0  0  0  0  0  0  0
   30.2918  -10.6408   37.3876 C   0  0  0  0  0  0  0  0  0  0  0  0
 18 19  1  0  0  0
 19  1  1  0  0  0
  1  2  2  0  0  0
  2  3  1  0  0  0
  3  4  2  0  0  0
  4 20  1  0  0  0
 20 22  1  0  0  0
 22 23  1  0  0  0
 23 24  1  0  0  0
 24 25  1  0  0  0
 25 26  1  0  0  0
 26 27  1  0  0  0
 25 28  1  0  0  0
 28 29  1  0  0  0
 28 30  1  0  0  0
  4  5  1  0  0  0
  5  6  2  0  0  0
  6  7  1  0  0  0
  7  8  2  0  0  0
  8  9  1  0  0  0
  9 10  2  0  0  0
 10 31  1  0  0  0
 31 32  1  0  0  0
 32 33  1  0  0  0
 33 34  1  0  0  0
 34 35  1  0  0  0
 35 36  1  0  0  0
 36 37  1  0  0  0
 37 38  1  0  0  0
 38 39  1  0  0  0
 39 40  1  0  0  0
  6 11  1  0  0  0
 11 12  1  0  0  0
 12 13  1  0  0  0
 13 14  1  0  0  0
 14 15  1  0  0  0
 15 16  1  0  0  0
 16 17  1  0  0  0
 10  1  1  0  0  0
 40 35  1  0  0  0
 17 11  1  0  0  0
  8  3  1  0  0  0
 27 22  1  0  0  0
 20 21  1  0  0  0
M  END
> <minimizedAffinity>
-8.67352

> <CNNscore>
0.6940259337

> <CNNaffinity>
7.6297760010

> <CNN_VS>
5.2952623367

> <CNNaffinity_variance>
0.0619291887

$$$$
[H]c1c(OC([H])([H])C([H])([H])C([H])([H])N2C([H])([H])C([H])([H])C([H])([H])C([H])([H])C2([H])[H])c(OC([H])([H])[H])c([H])c2c(N([H])C3([H])C([H])([H])C([H])([H])N(C([H])(C([H])([H])[H])C([H])([H])[H])C([H])([H])C3([H])[H])nc(N3C([H])([H])C([H])([H])C([H])([H])C([H])([H])C([H])([H])C3([H])[H])nc12


 40 44  0  0  0  0  0  0  0  0999 V2000
   36.2534  -14.5438   36.5612 C   0  0  0  0  0  0  0  0  0  0  0  0
   36.5524  -15.8874   36.6226 C   0  0  0  0  0  0  0  0  0  0  0  0
   35.5996  -16.8731   36.4083 C   0  0  0  0  0  0  0  0  0  0  0  0
   35.8724  -18.2143   36.4367 C   0  0  0  0  0  0  0  0  0  0  0  0
   34.8782  -19.0741   36.1813 N   0  0  0  0  0  0  0  0  0  0  0  0
   33.6380  -18.7146   35.9028 C   0  0  0  0  0  0  0  0  0  0  0  0
   33.3783  -17.4001   35.8821 N   0  0  0  0  0  0  0  0  0  0  0  0
   34.3012  -16.4514   36.1230 C   0  0  0  0  0  0  0  0  0  0  0  0
   34.0146  -15.1051   36.0671 C   0  0  0  0  0  0  0  0  0  0  0  0
   34.9503  -14.1191   36.2773 C   0  0  0  0  0  0  0  0  0  0  0  0
   32.5912  -19.6940   35.5781 N   0  0  0  0  0  0  0  0  0  0  0  0
   32.9750  -20.9709   35.9804 C   0  0  0  0  0  0  0  0  0  0  0  0
   32.5453  -22.2600   35.3763 C   0  0  0  0  0  0  0  0  0  0  0  0
   30.9790  -22.4010   35.3238 C   0  0  0  0  0  0  0  0  0  0  0  0
   30.5102  -21.0837   35.1561 C   0  0  0  0  0  0  0  0  0  0  0  0
   30.1448  -19.7374   35.0242 C   0  0  0  0  0  0  0  0  0  0  0  0
   31.4928  -18.9416   34.9475 C   0  0  0  0  0  0  0  0  0  0  0  0
   38.1839  -13.5505   37.7709 C   0  0  0  0  0  0  0  0  0  0  0  0
   37.2031  -13.5791   36.7698 O   0  0  0  0  0  0  0  0  0  0  0  0
   37.1399  -18.6955   36.7703 N   0  0  0  0  0  0  0  0  0  0  0  0
   37.4107  -18.7198   37.8038 H   0  0  0  0  0  0  0  0  0  0  0  0
   38.1524  -19.1799   35.8913 C   0  0  0  0  0  0  0  0  0  0  0  0
   38.0003  -18.8584   34.4392 C   0  0  0  0  0  0  0  0  0  0  0  0
   39.1740  -19.5042   33.7129 C   0  0  0  0  0  0  0  0  0  0  0  0
   40.0882  -20.1412   34.5565 N   0  0  0  0  0  0  0  0  0  0  0  0
   40.6197  -19.4291   35.6196 C   0  0  0  0  0  0  0  0  0  0  0  0
   39.5056  -18.6909   36.3554 C   0  0  0  0  0  0  0  0  0  0  0  0
   40.3216  -21.5127   34.4139 C   0  0  0  0  0  0  0  0  0  0  0  0
   39.0299  -22.3047   34.3836 C   0  0  0  0  0  0  0  0  0  0  0  0
   41.2281  -22.0896   35.4967 C   0  0  0  0  0  0  0  0  0  0  0  0
   34.6801  -12.7675   36.2274 O   0  0  0  0  0  0  0  0  0  0  0  0
   34.3292  -11.9643   37.3293 C   0  0  0  0  0  0  0  0  0  0  0  0
   32.8941  -11.4914   37.1880 C   0  0  0  0  0  0  0  0  0  0  0  0
   31.9209  -12.4361   37.7999 C   0  0  0  0  0  0  0  0  0  0  0  0
   30.5383  -12.1211   37.6380 N   0  0  0  0  0  0  0  0  0  0  0  0
   29.8996  -12.4884   38.9163 C   0  0  0  0  0  0  0  0  0  0  0  0
   28.4113  -12.4084   38.8473 C   0  0  0  0  0  0  0  0  0  0  0  0
   28.0312  -11.0409   38.3194 C   0  0  0  0  0  0  0  0  0  0  0  0
   29.2776  -10.1840   38.3364 C   0  0  0  0  0  0  0  0  0  0  0  0
   30.3125  -10.7117   37.3706 C   0  0  0  0  0  0  0  0  0  0  0  0
 18 19  1  0  0  0
 19  1  1  0  0  0
  1  2  2  0  0  0
  2  3  1  0  0  0
  3  4  2  0  0  0
  4 20  1  0  0  0
 20 22  1  0  0  0
 22 23  1  0  0  0
 23 24  1  0  0  0
 24 25  1  0  0  0
 25 26  1  0  0  0
 26 27  1  0  0  0
 25 28  1  0  0  0
 28 29  1  0  0  0
 28 30  1  0  0  0
  4  5  1  0  0  0
  5  6  2  0  0  0
  6  7  1  0  0  0
  7  8  2  0  0  0
  8  9  1  0  0  0
  9 10  2  0  0  0
 10 31  1  0  0  0
 31 32  1  0  0  0
 32 33  1  0  0  0
 33 34  1  0  0  0
 34 35  1  0  0  0
 35 36  1  0  0  0
 36 37  1  0  0  0
 37 38  1  0  0  0
 38 39  1  0  0  0
 39 40  1  0  0  0
  6 11  1  0  0  0
 11 12  1  0  0  0
 12 13  1  0  0  0
 13 14  1  0  0  0
 14 15  1  0  0  0
 15 16  1  0  0  0
 16 17  1  0  0  0
 10  1  1  0  0  0
 40 35  1  0  0  0
 17 11  1  0  0  0
  8  3  1  0  0  0
 27 22  1  0  0  0
 20 21  1  0  0  0
M  END
> <minimizedAffinity>
-8.48690

> <CNNscore>
0.5764287114

> <CNNaffinity>
7.4409837723

> <CNN_VS>
4.2891964912

> <CNNaffinity_variance>
0.0489302874

$$$$
[H]c1c(OC([H])([H])C([H])([H])C([H])([H])N2C([H])([H])C([H])([H])C([H])([H])C([H])([H])C2([H])[H])c(OC([H])([H])[H])c([H])c2c(N([H])C3([H])C([H])([H])C([H])([H])N(C([H])(C([H])([H])[H])C([H])([H])[H])C([H])([H])C3([H])[H])nc(N3C([H])([H])C([H])([H])C([H])([H])C([H])([H])C([H])([H])C3([H])[H])nc12


 40 44  0  0  0  0  0  0  0  0999 V2000
   36.6048  -14.4496   36.8014 C   0  0  0  0  0  0  0  0  0  0  0  0
   37.1134  -15.6273   36.2987 C   0  0  0  0  0  0  0  0  0  0  0  0
   36.3231  -16.7465   36.0793 C   0  0  0  0  0  0  0  0  0  0  0  0
   36.7947  -17.9206   35.5567 C   0  0  0  0  0  0  0  0  0  0  0  0
   35.9307  -18.9239   35.3574 N   0  0  0  0  0  0  0  0  0  0  0  0
   34.6408  -18.8600   35.6352 C   0  0  0  0  0  0  0  0  0  0  0  0
   34.1884  -17.7091   36.1512 N   0  0  0  0  0  0  0  0  0  0  0  0
   34.9680  -16.6392   36.3911 C   0  0  0  0  0  0  0  0  0  0  0  0
   34.4723  -15.4570   36.8956 C   0  0  0  0  0  0  0  0  0  0  0  0
   35.2455  -14.3413   37.1170 C   0  0  0  0  0  0  0  0  0  0  0  0
   33.7210  -19.9706   35.3508 N   0  0  0  0  0  0  0  0  0  0  0  0
   33.7563  -20.9098   36.3786 C   0  0  0  0  0  0  0  0  0  0  0  0
   33.4746  -22.3653   36.2629 C   0  0  0  0  0  0  0  0  0  0  0  0
   32.0671  -22.6510   35.6201 C   0  0  0  0  0  0  0  0  0  0  0  0
   31.8621  -21.5816   34.7269 C   0  0  0  0  0  0  0  0  0  0  0  0
   31.7388  -20.4618   33.8938 C   0  0  0  0  0  0  0  0  0  0  0  0
   33.0767  -19.6631   34.0622 C   0  0  0  0  0  0  0  0  0  0  0  0
   38.5730  -13.2759   37.7633 C   0  0  0  0  0  0  0  0  0  0  0  0
   37.3934  -13.3492   37.0096 O   0  0  0  0  0  0  0  0  0  0  0  0
   38.1503  -18.1039   35.2770 N   0  0  0  0  0  0  0  0  0  0  0  0
   38.5946  -17.4876   34.5253 H   0  0  0  0  0  0  0  0  0  0  0  0
   39.0526  -19.0273   35.8815 C   0  0  0  0  0  0  0  0  0  0  0  0
   38.6374  -19.6248   37.1875 C   0  0  0  0  0  0  0  0  0  0  0  0
   39.7678  -20.5414   37.6395 C   0  0  0  0  0  0  0  0  0  0  0  0
   40.8226  -20.6409   36.7280 N   0  0  0  0  0  0  0  0  0  0  0  0
   40.5369  -20.9773   35.4146 C   0  0  0  0  0  0  0  0  0  0  0  0
   39.3591  -20.1472   34.9133 C   0  0  0  0  0  0  0  0  0  0  0  0
   42.1078  -20.2450   37.1116 C   0  0  0  0  0  0  0  0  0  0  0  0
   43.0796  -21.4079   37.1133 C   0  0  0  0  0  0  0  0  0  0  0  0
   42.1511  -19.5647   38.4762 C   0  0  0  0  0  0  0  0  0  0  0  0
   34.7661  -13.1513   37.6234 O   0  0  0  0  0  0  0  0  0  0  0  0
   34.1331  -12.1415   36.8737 C   0  0  0  0  0  0  0  0  0  0  0  0
   33.0677  -11.4637   37.7156 C   0  0  0  0  0  0  0  0  0  0  0  0
   32.0546  -12.4235   38.2317 C   0  0  0  0  0  0  0  0  0  0  0  0
   30.6982  -12.1802   37.8603 N   0  0  0  0  0  0  0  0  0  0  0  0
   29.9041  -12.4498   39.0741 C   0  0  0  0  0  0  0  0  0  0  0  0
   28.4369  -12.4356   38.8038 C   0  0  0  0  0  0  0  0  0  0  0  0
   28.0945  -11.1403   38.0979 C   0  0  0  0  0  0  0  0  0  0  0  0
   29.3042  -10.2371   38.1925 C   0  0  0  0  0  0  0  0  0  0  0  0
   30.4727  -10.8125   37.4273 C   0  0  0  0  0  0  0  0  0  0  0  0
 18 19  1  0  0  0
 19  1  1  0  0  0
  1  2  2  0  0  0
  2  3  1  0  0  0
  3  4  2  0  0  0
  4 20  1  0  0  0
 20 22  1  0  0  0
 22 23  1  0  0  0
 23 24  1  0  0  0
 24 25  1  0  0  0
 25 26  1  0  0  0
 26 27  1  0  0  0
 25 28  1  0  0  0
 28 29  1  0  0  0
 28 30  1  0  0  0
  4  5  1  0  0  0
  5  6  2  0  0  0
  6  7  1  0  0  0
  7  8  2  0  0  0
  8  9  1  0  0  0
  9 10  2  0  0  0
 10 31  1  0  0  0
 31 32  1  0  0  0
 32 33  1  0  0  0
 33 34  1  0  0  0
 34 35  1  0  0  0
 35 36  1  0  0  0
 36 37  1  0  0  0
 37 38  1  0  0  0
 38 39  1  0  0  0
 39 40  1  0  0  0
  6 11  1  0  0  0
 11 12  1  0  0  0
 12 13  1  0  0  0
 13 14  1  0  0  0
 14 15  1  0  0  0
 15 16  1  0  0  0
 16 17  1  0  0  0
 10  1  1  0  0  0
 40 35  1  0  0  0
 17 11  1  0  0  0
  8  3  1  0  0  0
 27 22  1  0  0  0
 20 21  1  0  0  0
M  END
> <minimizedAffinity>
-7.37407

> <CNNscore>
0.3881876767

> <CNNaffinity>
6.9456543922

> <CNN_VS>
2.6962175369

> <CNNaffinity_variance>
0.0177635401

$$$$
[H]c1c(OC([H])([H])C([H])([H])C([H])([H])N2C([H])([H])C([H])([H])C([H])([H])C([H])([H])C2([H])[H])c(OC([H])([H])[H])c([H])c2c(N([H])C3([H])C([H])([H])C([H])([H])N(C([H])(C([H])([H])[H])C([H])([H])[H])C([H])([H])C3([H])[H])nc(N3C([H])([H])C([H])([H])C([H])([H])C([H])([H])C([H])([H])C3([H])[H])nc12


 40 44  0  0  0  0  0  0  0  0999 V2000
   36.9127  -21.7555   38.0281 C   0  0  0  0  0  0  0  0  0  0  0  0
   37.7552  -20.7692   37.5635 C   0  0  0  0  0  0  0  0  0  0  0  0
   37.3188  -19.4779   37.3039 C   0  0  0  0  0  0  0  0  0  0  0  0
   38.1373  -18.4712   36.8673 C   0  0  0  0  0  0  0  0  0  0  0  0
   37.6105  -17.2542   36.6825 N   0  0  0  0  0  0  0  0  0  0  0  0
   36.3413  -16.9542   36.8922 C   0  0  0  0  0  0  0  0  0  0  0  0
   35.5459  -17.9464   37.3146 N   0  0  0  0  0  0  0  0  0  0  0  0
   35.9706  -19.2042   37.5328 C   0  0  0  0  0  0  0  0  0  0  0  0
   35.1379  -20.1997   37.9950 C   0  0  0  0  0  0  0  0  0  0  0  0
   35.5589  -21.4828   38.2560 C   0  0  0  0  0  0  0  0  0  0  0  0
   35.8193  -15.5903   36.7249 N   0  0  0  0  0  0  0  0  0  0  0  0
   34.4385  -15.6141   36.5451 C   0  0  0  0  0  0  0  0  0  0  0  0
   33.6215  -14.6186   35.8016 C   0  0  0  0  0  0  0  0  0  0  0  0
   33.8483  -13.1518   36.3240 C   0  0  0  0  0  0  0  0  0  0  0  0
   35.1894  -13.1322   36.7534 C   0  0  0  0  0  0  0  0  0  0  0  0
   36.5201  -13.2254   37.1824 C   0  0  0  0  0  0  0  0  0  0  0  0
   36.9750  -14.6826   36.8278 C   0  0  0  0  0  0  0  0  0  0  0  0
   37.6153  -24.0428   37.3565 C   0  0  0  0  0  0  0  0  0  0  0  0
   37.3554  -23.0258   38.2855 O   0  0  0  0  0  0  0  0  0  0  0  0
   39.4821  -18.6998   36.5693 N   0  0  0  0  0  0  0  0  0  0  0  0
   40.2132  -18.3938   37.2862 H   0  0  0  0  0  0  0  0  0  0  0  0
   40.0295  -19.3110   35.4035 C   0  0  0  0  0  0  0  0  0  0  0  0
   39.2200  -19.2258   34.1496 C   0  0  0  0  0  0  0  0  0  0  0  0
   39.9920  -19.9711   33.0674 C   0  0  0  0  0  0  0  0  0  0  0  0
   41.2334  -20.4595   33.4839 N   0  0  0  0  0  0  0  0  0  0  0  0
   42.1264  -19.5838   34.0800 C   0  0  0  0  0  0  0  0  0  0  0  0
   41.4046  -18.7454   35.1305 C   0  0  0  0  0  0  0  0  0  0  0  0
   41.4848  -21.8346   33.4429 C   0  0  0  0  0  0  0  0  0  0  0  0
   40.2921  -22.6407   33.9170 C   0  0  0  0  0  0  0  0  0  0  0  0
   42.7121  -22.2512   34.2472 C   0  0  0  0  0  0  0  0  0  0  0  0
   34.7388  -22.4915   38.7165 O   0  0  0  0  0  0  0  0  0  0  0  0
   33.5268  -22.8929   38.1228 C   0  0  0  0  0  0  0  0  0  0  0  0
   33.7457  -23.1890   36.6505 C   0  0  0  0  0  0  0  0  0  0  0  0
   32.5587  -22.8506   35.8196 C   0  0  0  0  0  0  0  0  0  0  0  0
   32.2155  -21.4681   35.7310 N   0  0  0  0  0  0  0  0  0  0  0  0
   32.1865  -21.1623   34.2879 C   0  0  0  0  0  0  0  0  0  0  0  0
   32.0378  -19.7015   34.0232 C   0  0  0  0  0  0  0  0  0  0  0  0
   30.8419  -19.1949   34.8019 C   0  0  0  0  0  0  0  0  0  0  0  0
   30.0892  -20.4021   35.3160 C   0  0  0  0  0  0  0  0  0  0  0  0
   30.9188  -21.1743   36.3149 C   0  0  0  0  0  0  0  0  0  0  0  0
 18 19  1  0  0  0
 19  1  1  0  0  0
  1  2  2  0  0  0
  2  3  1  0  0  0
  3  4  2  0  0  0
  4 20  1  0  0  0
 20 22  1  0  0  0
 22 23  1  0  0  0
 23 24  1  0  0  0
 24 25  1  0  0  0
 25 26  1  0  0  0
 26 27  1  0  0  0
 25 28  1  0  0  0
 28 29  1  0  0  0
 28 30  1  0  0  0
  4  5  1  0  0  0
  5  6  2  0  0  0
  6  7  1  0  0  0
  7  8  2  0  0  0
  8  9  1  0  0  0
  9 10  2  0  0  0
 10 31  1  0  0  0
 31 32  1  0  0  0
 32 33  1  0  0  0
 33 34  1  0  0  0
 34 35  1  0  0  0
 35 36  1  0  0  0
 36 37  1  0  0  0
 37 38  1  0  0  0
 38 39  1  0  0  0
 39 40  1  0  0  0
  6 11  1  0  0  0
 11 12  1  0  0  0
 12 13  1  0  0  0
 13 14  1  0  0  0
 14 15  1  0  0  0
 15 16  1  0  0  0
 16 17  1  0  0  0
 10  1  1  0  0  0
 40 35  1  0  0  0
 17 11  1  0  0  0
  8  3  1  0  0  0
 27 22  1  0  0  0
 20 21  1  0  0  0
M  END
> <minimizedAffinity>
-6.59590

> <CNNscore>
0.3046017289

> <CNNaffinity>
6.5192503929

> <CNN_VS>
1.9857749939

> <CNNaffinity_variance>
0.4337564409

$$$$
[H]c1c(OC([H])([H])C([H])([H])C([H])([H])N2C([H])([H])C([H])([H])C([H])([H])C([H])([H])C2([H])[H])c(OC([H])([H])[H])c([H])c2c(N([H])C3([H])C([H])([H])C([H])([H])N(C([H])(C([H])([H])[H])C([H])([H])[H])C([H])([H])C3([H])[H])nc(N3C([H])([H])C([H])([H])C([H])([H])C([H])([H])C([H])([H])C3([H])[H])nc12


 40 44  0  0  0  0  0  0  0  0999 V2000
   36.2336  -15.5522   36.5339 C   0  0  0  0  0  0  0  0  0  0  0  0
   36.7437  -16.7986   36.8247 C   0  0  0  0  0  0  0  0  0  0  0  0
   35.9909  -17.9581   36.7050 C   0  0  0  0  0  0  0  0  0  0  0  0
   36.4780  -19.2116   36.9612 C   0  0  0  0  0  0  0  0  0  0  0  0
   35.6675  -20.2616   36.7784 N   0  0  0  0  0  0  0  0  0  0  0  0
   34.4159  -20.1714   36.3656 C   0  0  0  0  0  0  0  0  0  0  0  0
   33.9455  -18.9406   36.1220 N   0  0  0  0  0  0  0  0  0  0  0  0
   34.6726  -17.8186   36.2718 C   0  0  0  0  0  0  0  0  0  0  0  0
   34.1737  -16.5665   35.9868 C   0  0  0  0  0  0  0  0  0  0  0  0
   34.9100  -15.4105   36.1014 C   0  0  0  0  0  0  0  0  0  0  0  0
   33.5801  -21.3572   36.1298 N   0  0  0  0  0  0  0  0  0  0  0  0
   32.6889  -21.1269   35.0845 C   0  0  0  0  0  0  0  0  0  0  0  0
   31.3565  -21.7597   34.8966 C   0  0  0  0  0  0  0  0  0  0  0  0
   31.4362  -23.3312   34.9053 C   0  0  0  0  0  0  0  0  0  0  0  0
   32.5006  -23.6269   35.7787 C   0  0  0  0  0  0  0  0  0  0  0  0
   33.5937  -23.8144   36.6351 C   0  0  0  0  0  0  0  0  0  0  0  0
   34.0160  -22.3779   37.0983 C   0  0  0  0  0  0  0  0  0  0  0  0
   37.6640  -13.9535   37.7889 C   0  0  0  0  0  0  0  0  0  0  0  0
   36.9873  -14.4146   36.6511 O   0  0  0  0  0  0  0  0  0  0  0  0
   37.7714  -19.4076   37.4491 N   0  0  0  0  0  0  0  0  0  0  0  0
   37.8931  -19.5569   38.5003 H   0  0  0  0  0  0  0  0  0  0  0  0
   38.9904  -19.4424   36.7109 C   0  0  0  0  0  0  0  0  0  0  0  0
   39.8879  -20.6160   36.9390 C   0  0  0  0  0  0  0  0  0  0  0  0
   41.1239  -20.4091   36.0718 C   0  0  0  0  0  0  0  0  0  0  0  0
   41.0744  -19.2662   35.2689 N   0  0  0  0  0  0  0  0  0  0  0  0
   39.9744  -19.0777   34.4477 C   0  0  0  0  0  0  0  0  0  0  0  0
   38.6928  -19.3417   35.2322 C   0  0  0  0  0  0  0  0  0  0  0  0
   42.0403  -18.2674   35.4272 C   0  0  0  0  0  0  0  0  0  0  0  0
   43.0024  -18.2223   34.2571 C   0  0  0  0  0  0  0  0  0  0  0  0
   42.8412  -18.3972   36.7189 C   0  0  0  0  0  0  0  0  0  0  0  0
   34.4258  -14.1495   35.8225 O   0  0  0  0  0  0  0  0  0  0  0  0
   33.1830  -13.6407   36.2456 C   0  0  0  0  0  0  0  0  0  0  0  0
   33.3587  -12.8467   37.5270 C   0  0  0  0  0  0  0  0  0  0  0  0
   34.3710  -11.7646   37.3914 C   0  0  0  0  0  0  0  0  0  0  0  0
   33.9816  -10.6180   36.6360 N   0  0  0  0  0  0  0  0  0  0  0  0
   33.4551   -9.6571   37.6240 C   0  0  0  0  0  0  0  0  0  0  0  0
   32.8166   -8.4742   36.9765 C   0  0  0  0  0  0  0  0  0  0  0  0
   33.7970   -7.8874   35.9827 C   0  0  0  0  0  0  0  0  0  0  0  0
   35.1397   -8.5388   36.2294 C   0  0  0  0  0  0  0  0  0  0  0  0
   35.0917  -10.0164   35.9186 C   0  0  0  0  0  0  0  0  0  0  0  0
 18 19  1  0  0  0
 19  1  1  0  0  0
  1  2  2  0  0  0
  2  3  1  0  0  0
  3  4  2  0  0  0
  4 20  1  0  0  0
 20 22  1  0  0  0
 22 23  1  0  0  0
 23 24  1  0  0  0
 24 25  1  0  0  0
 25 26  1  0  0  0
 26 27  1  0  0  0
 25 28  1  0  0  0
 28 29  1  0  0  0
 28 30  1  0  0  0
  4  5  1  0  0  0
  5  6  2  0  0  0
  6  7  1  0  0  0
  7  8  2  0  0  0
  8  9  1  0  0  0
  9 10  2  0  0  0
 10 31  1  0  0  0
 31 32  1  0  0  0
 32 33  1  0  0  0
 33 34  1  0  0  0
 34 35  1  0  0  0
 35 36  1  0  0  0
 36 37  1  0  0  0
 37 38  1  0  0  0
 38 39  1  0  0  0
 39 40  1  0  0  0
  6 11  1  0  0  0
 11 12  1  0  0  0
 12 13  1  0  0  0
 13 14  1  0  0  0
 14 15  1  0  0  0
 15 16  1  0  0  0
 16 17  1  0  0  0
 10  1  1  0  0  0
 40 35  1  0  0  0
 17 11  1  0  0  0
  8  3  1  0  0  0
 27 22  1  0  0  0
 20 21  1  0  0  0
M  END
> <minimizedAffinity>
-7.25932

> <CNNscore>
0.2672089040

> <CNNaffinity>
6.5993399620

> <CNN_VS>
1.7634023428

> <CNNaffinity_variance>
0.2060441226

$$$$
[H]c1c(OC([H])([H])C([H])([H])C([H])([H])N2C([H])([H])C([H])([H])C([H])([H])C([H])([H])C2([H])[H])c(OC([H])([H])[H])c([H])c2c(N([H])C3([H])C([H])([H])C([H])([H])N(C([H])(C([H])([H])[H])C([H])([H])[H])C([H])([H])C3([H])[H])nc(N3C([H])([H])C([H])([H])C([H])([H])C([H])([H])C([H])([H])C3([H])[H])nc12


 40 44  0  0  0  0  0  0  0  0999 V2000
   36.4778  -15.8829   36.6094 C   0  0  0  0  0  0  0  0  0  0  0  0
   36.9550  -17.1709   36.7183 C   0  0  0  0  0  0  0  0  0  0  0  0
   36.1283  -18.2817   36.6281 C   0  0  0  0  0  0  0  0  0  0  0  0
   36.5771  -19.5727   36.7059 C   0  0  0  0  0  0  0  0  0  0  0  0
   35.6901  -20.5667   36.5712 N   0  0  0  0  0  0  0  0  0  0  0  0
   34.3972  -20.3866   36.3683 C   0  0  0  0  0  0  0  0  0  0  0  0
   33.9655  -19.1199   36.2986 N   0  0  0  0  0  0  0  0  0  0  0  0
   34.7693  -18.0479   36.4195 C   0  0  0  0  0  0  0  0  0  0  0  0
   34.3044  -16.7553   36.3150 C   0  0  0  0  0  0  0  0  0  0  0  0
   35.1138  -15.6467   36.4025 C   0  0  0  0  0  0  0  0  0  0  0  0
   33.4694  -21.5099   36.1748 N   0  0  0  0  0  0  0  0  0  0  0  0
   32.4703  -21.1678   35.2668 C   0  0  0  0  0  0  0  0  0  0  0  0
   31.0895  -21.7172   35.2154 C   0  0  0  0  0  0  0  0  0  0  0  0
   31.0759  -23.2882   35.1252 C   0  0  0  0  0  0  0  0  0  0  0  0
   32.2214  -23.6937   35.8371 C   0  0  0  0  0  0  0  0  0  0  0  0
   33.3995  -23.9917   36.5347 C   0  0  0  0  0  0  0  0  0  0  0  0
   33.9610  -22.6114   37.0205 C   0  0  0  0  0  0  0  0  0  0  0  0
   37.5627  -14.0071   37.8263 C   0  0  0  0  0  0  0  0  0  0  0  0
   37.3038  -14.7937   36.6953 O   0  0  0  0  0  0  0  0  0  0  0  0
   37.9167  -19.8664   36.9679 N   0  0  0  0  0  0  0  0  0  0  0  0
   38.6492  -19.5351   36.2638 H   0  0  0  0  0  0  0  0  0  0  0  0
   38.4579  -20.5657   38.0861 C   0  0  0  0  0  0  0  0  0  0  0  0
   38.1959  -22.0358   38.1579 C   0  0  0  0  0  0  0  0  0  0  0  0
   38.8406  -22.5428   39.4423 C   0  0  0  0  0  0  0  0  0  0  0  0
   39.5400  -21.5654   40.1556 N   0  0  0  0  0  0  0  0  0  0  0  0
   40.5019  -20.8198   39.4935 C   0  0  0  0  0  0  0  0  0  0  0  0
   39.9506  -20.3369   38.1554 C   0  0  0  0  0  0  0  0  0  0  0  0
   39.1488  -21.2488   41.4604 C   0  0  0  0  0  0  0  0  0  0  0  0
   40.1187  -21.7955   42.4886 C   0  0  0  0  0  0  0  0  0  0  0  0
   37.7426  -21.7286   41.8055 C   0  0  0  0  0  0  0  0  0  0  0  0
   34.6648  -14.3465   36.3025 O   0  0  0  0  0  0  0  0  0  0  0  0
   33.3304  -13.9592   36.0753 C   0  0  0  0  0  0  0  0  0  0  0  0
   32.8600  -13.0457   37.1922 C   0  0  0  0  0  0  0  0  0  0  0  0
   31.7110  -12.1929   36.7838 C   0  0  0  0  0  0  0  0  0  0  0  0
   31.0250  -11.5041   37.8287 N   0  0  0  0  0  0  0  0  0  0  0  0
   30.6248  -10.2082   37.2481 C   0  0  0  0  0  0  0  0  0  0  0  0
   30.0672   -9.2783   38.2730 C   0  0  0  0  0  0  0  0  0  0  0  0
   28.9697  -10.0008   39.0258 C   0  0  0  0  0  0  0  0  0  0  0  0
   28.6624  -11.2747   38.2703 C   0  0  0  0  0  0  0  0  0  0  0  0
   29.8447  -12.2150   38.2875 C   0  0  0  0  0  0  0  0  0  0  0  0
 18 19  1  0  0  0
 19  1  1  0  0  0
  1  2  2  0  0  0
  2  3  1  0  0  0
  3  4  2  0  0  0
  4 20  1  0  0  0
 20 22  1  0  0  0
 22 23  1  0  0  0
 23 24  1  0  0  0
 24 25  1  0  0  0
 25 26  1  0  0  0
 26 27  1  0  0  0
 25 28  1  0  0  0
 28 29  1  0  0  0
 28 30  1  0  0  0
  4  5  1  0  0  0
  5  6  2  0  0  0
  6  7  1  0  0  0
  7  8  2  0  0  0
  8  9  1  0  0  0
  9 10  2  0  0  0
 10 31  1  0  0  0
 31 32  1  0  0  0
 32 33  1  0  0  0
 33 34  1  0  0  0
 34 35  1  0  0  0
 35 36  1  0  0  0
 36 37  1  0  0  0
 37 38  1  0  0  0
 38 39  1  0  0  0
 39 40  1  0  0  0
  6 11  1  0  0  0
 11 12  1  0  0  0
 12 13  1  0  0  0
 13 14  1  0  0  0
 14 15  1  0  0  0
 15 16  1  0  0  0
 16 17  1  0  0  0
 10  1  1  0  0  0
 40 35  1  0  0  0
 17 11  1  0  0  0
  8  3  1  0  0  0
 27 22  1  0  0  0
 20 21  1  0  0  0
M  END
> <minimizedAffinity>
-6.56010

> <CNNscore>
0.2351880372

> <CNNaffinity>
6.3170952797

> <CNN_VS>
1.4857052565

> <CNNaffinity_variance>
0.0794283226

$$$$
[H]c1c(OC([H])([H])C([H])([H])C([H])([H])N2C([H])([H])C([H])([H])C([H])([H])C([H])([H])C2([H])[H])c(OC([H])([H])[H])c([H])c2c(N([H])C3([H])C([H])([H])C([H])([H])N(C([H])(C([H])([H])[H])C([H])([H])[H])C([H])([H])C3([H])[H])nc(N3C([H])([H])C([H])([H])C([H])([H])C([H])([H])C([H])([H])C3([H])[H])nc12


 40 44  0  0  0  0  0  0  0  0999 V2000
   35.3635  -23.0203   37.1745 C   0  0  0  0  0  0  0  0  0  0  0  0
   36.4517  -22.1792   37.2575 C   0  0  0  0  0  0  0  0  0  0  0  0
   36.3413  -20.8027   37.1224 C   0  0  0  0  0  0  0  0  0  0  0  0
   37.3995  -19.9404   37.2262 C   0  0  0  0  0  0  0  0  0  0  0  0
   37.1670  -18.6268   37.1112 N   0  0  0  0  0  0  0  0  0  0  0  0
   35.9747  -18.0988   36.9000 C   0  0  0  0  0  0  0  0  0  0  0  0
   34.9451  -18.9500   36.7945 N   0  0  0  0  0  0  0  0  0  0  0  0
   35.0660  -20.2862   36.8945 C   0  0  0  0  0  0  0  0  0  0  0  0
   33.9864  -21.1380   36.8110 C   0  0  0  0  0  0  0  0  0  0  0  0
   34.0834  -22.5036   36.9434 C   0  0  0  0  0  0  0  0  0  0  0  0
   35.7605  -16.6463   36.8322 N   0  0  0  0  0  0  0  0  0  0  0  0
   36.8931  -15.9644   37.2703 C   0  0  0  0  0  0  0  0  0  0  0  0
   36.9325  -14.6156   37.8951 C   0  0  0  0  0  0  0  0  0  0  0  0
   36.2302  -13.5250   37.0043 C   0  0  0  0  0  0  0  0  0  0  0  0
   35.2034  -14.2205   36.3370 C   0  0  0  0  0  0  0  0  0  0  0  0
   34.2357  -15.0079   35.6990 C   0  0  0  0  0  0  0  0  0  0  0  0
   34.4019  -16.4463   36.2989 C   0  0  0  0  0  0  0  0  0  0  0  0
   36.0337  -25.2837   36.3971 C   0  0  0  0  0  0  0  0  0  0  0  0
   35.4835  -24.3775   37.3142 O   0  0  0  0  0  0  0  0  0  0  0  0
   38.7053  -20.4033   37.3992 N   0  0  0  0  0  0  0  0  0  0  0  0
   39.4745  -19.9698   36.7970 H   0  0  0  0  0  0  0  0  0  0  0  0
   39.1677  -21.4039   38.3032 C   0  0  0  0  0  0  0  0  0  0  0  0
   40.1145  -22.4246   37.7584 C   0  0  0  0  0  0  0  0  0  0  0  0
   40.4333  -23.3899   38.8937 C   0  0  0  0  0  0  0  0  0  0  0  0
   39.8444  -23.0510   40.1150 N   0  0  0  0  0  0  0  0  0  0  0  0
   40.0353  -21.7722   40.6130 C   0  0  0  0  0  0  0  0  0  0  0  0
   39.8048  -20.7473   39.5066 C   0  0  0  0  0  0  0  0  0  0  0  0
   38.9517  -23.9396   40.7227 C   0  0  0  0  0  0  0  0  0  0  0  0
   39.1407  -23.9898   42.2256 C   0  0  0  0  0  0  0  0  0  0  0  0
   39.0357  -25.3581   40.1679 C   0  0  0  0  0  0  0  0  0  0  0  0
   33.0140  -23.3706   36.8603 O   0  0  0  0  0  0  0  0  0  0  0  0
   32.4840  -24.1174   37.9297 C   0  0  0  0  0  0  0  0  0  0  0  0
   31.9968  -23.1825   39.0216 C   0  0  0  0  0  0  0  0  0  0  0  0
   32.7972  -23.3004   40.2703 C   0  0  0  0  0  0  0  0  0  0  0  0
   34.1048  -22.7289   40.2461 N   0  0  0  0  0  0  0  0  0  0  0  0
   33.9361  -21.3422   40.7208 C   0  0  0  0  0  0  0  0  0  0  0  0
   35.1829  -20.5372   40.5670 C   0  0  0  0  0  0  0  0  0  0  0  0
   36.3226  -21.2943   41.2158 C   0  0  0  0  0  0  0  0  0  0  0  0
   35.7190  -22.4271   42.0161 C   0  0  0  0  0  0  0  0  0  0  0  0
   35.0377  -23.4277   41.1122 C   0  0  0  0  0  0  0  0  0  0  0  0
 18 19  1  0  0  0
 19  1  1  0  0  0
  1  2  2  0  0  0
  2  3  1  0  0  0
  3  4  2  0  0  0
  4 20  1  0  0  0
 20 22  1  0  0  0
 22 23  1  0  0  0
 23 24  1  0  0  0
 24 25  1  0  0  0
 25 26  1  0  0  0
 26 27  1  0  0  0
 25 28  1  0  0  0
 28 29  1  0  0  0
 28 30  1  0  0  0
  4  5  1  0  0  0
  5  6  2  0  0  0
  6  7  1  0  0  0
  7  8  2  0  0  0
  8  9  1  0  0  0
  9 10  2  0  0  0
 10 31  1  0  0  0
 31 32  1  0  0  0
 32 33  1  0  0  0
 33 34  1  0  0  0
 34 35  1  0  0  0
 35 36  1  0  0  0
 36 37  1  0  0  0
 37 38  1  0  0  0
 38 39  1  0  0  0
 39 40  1  0  0  0
  6 11  1  0  0  0
 11 12  1  0  0  0
 12 13  1  0  0  0
 13 14  1  0  0  0
 14 15  1  0  0  0
 15 16  1  0  0  0
 16 17  1  0  0  0
 10  1  1  0  0  0
 40 35  1  0  0  0
 17 11  1  0  0  0
  8  3  1  0  0  0
 27 22  1  0  0  0
 20 21  1  0  0  0
M  END
> <minimizedAffinity>
-4.49276

> <CNNscore>
0.2207659185

> <CNNaffinity>
5.7684926987

> <CNN_VS>
1.2734866142

> <CNNaffinity_variance>
0.2623867989

$$$$
[H]c1c(OC([H])([H])C([H])([H])C([H])([H])N2C([H])([H])C([H])([H])C([H])([H])C([H])([H])C2([H])[H])c(OC([H])([H])[H])c([H])c2c(N([H])C3([H])C([H])([H])C([H])([H])N(C([H])(C([H])([H])[H])C([H])([H])[H])C([H])([H])C3([H])[H])nc(N3C([H])([H])C([H])([H])C([H])([H])C([H])([H])C([H])([H])C3([H])[H])nc12


 40 44  0  0  0  0  0  0  0  0999 V2000
   34.7158  -18.0314   36.0301 C   0  0  0  0  0  0  0  0  0  0  0  0
   35.3928  -19.2261   36.1429 C   0  0  0  0  0  0  0  0  0  0  0  0
   36.7685  -19.2896   36.3121 C   0  0  0  0  0  0  0  0  0  0  0  0
   37.4647  -20.4599   36.4534 C   0  0  0  0  0  0  0  0  0  0  0  0
   38.7884  -20.3967   36.6451 N   0  0  0  0  0  0  0  0  0  0  0  0
   39.4776  -19.2714   36.7059 C   0  0  0  0  0  0  0  0  0  0  0  0
   38.7893  -18.1308   36.5615 N   0  0  0  0  0  0  0  0  0  0  0  0
   37.4594  -18.0793   36.3652 C   0  0  0  0  0  0  0  0  0  0  0  0
   36.7712  -16.8916   36.2486 C   0  0  0  0  0  0  0  0  0  0  0  0
   35.4081  -16.8160   36.0807 C   0  0  0  0  0  0  0  0  0  0  0  0
   40.9234  -19.2501   36.9698 N   0  0  0  0  0  0  0  0  0  0  0  0
   41.6200  -18.8254   35.8411 C   0  0  0  0  0  0  0  0  0  0  0  0
   43.0134  -19.1867   35.4682 C   0  0  0  0  0  0  0  0  0  0  0  0
   44.0406  -18.8631   36.6155 C   0  0  0  0  0  0  0  0  0  0  0  0
   43.3106  -19.0450   37.8060 C   0  0  0  0  0  0  0  0  0  0  0  0
   42.4903  -19.2187   38.9287 C   0  0  0  0  0  0  0  0  0  0  0  0
   41.1017  -19.6804   38.3674 C   0  0  0  0  0  0  0  0  0  0  0  0
   32.5063  -19.0195   35.4657 C   0  0  0  0  0  0  0  0  0  0  0  0
   33.3567  -17.9803   35.8679 O   0  0  0  0  0  0  0  0  0  0  0  0
   36.8345  -21.7019   36.3542 N   0  0  0  0  0  0  0  0  0  0  0  0
   36.9023  -22.2253   35.4249 H   0  0  0  0  0  0  0  0  0  0  0  0
   36.0940  -22.3913   37.3584 C   0  0  0  0  0  0  0  0  0  0  0  0
   36.2208  -23.8806   37.3919 C   0  0  0  0  0  0  0  0  0  0  0  0
   35.3217  -24.3807   38.5162 C   0  0  0  0  0  0  0  0  0  0  0  0
   34.6932  -23.3645   39.2410 N   0  0  0  0  0  0  0  0  0  0  0  0
   35.4709  -22.3490   39.7737 C   0  0  0  0  0  0  0  0  0  0  0  0
   36.4537  -21.8448   38.7213 C   0  0  0  0  0  0  0  0  0  0  0  0
   33.2965  -23.3018   39.2756 C   0  0  0  0  0  0  0  0  0  0  0  0
   32.7515  -22.3027   38.2748 C   0  0  0  0  0  0  0  0  0  0  0  0
   32.7382  -22.9709   40.6561 C   0  0  0  0  0  0  0  0  0  0  0  0
   34.7039  -15.6362   35.9600 O   0  0  0  0  0  0  0  0  0  0  0  0
   35.1638  -14.3669   36.3597 C   0  0  0  0  0  0  0  0  0  0  0  0
   33.9853  -13.4767   36.7089 C   0  0  0  0  0  0  0  0  0  0  0  0
   34.4070  -12.1942   37.3346 C   0  0  0  0  0  0  0  0  0  0  0  0
   33.9671  -10.9971   36.6939 N   0  0  0  0  0  0  0  0  0  0  0  0
   33.3997  -10.1617   37.7695 C   0  0  0  0  0  0  0  0  0  0  0  0
   32.7095   -8.9500   37.2388 C   0  0  0  0  0  0  0  0  0  0  0  0
   33.6625   -8.2263   36.3107 C   0  0  0  0  0  0  0  0  0  0  0  0
   35.0327   -8.8395   36.4971 C   0  0  0  0  0  0  0  0  0  0  0  0
   35.0492  -10.2802   36.0428 C   0  0  0  0  0  0  0  0  0  0  0  0
 18 19  1  0  0  0
 19  1  1  0  0  0
  1  2  2  0  0  0
  2  3  1  0  0  0
  3  4  2  0  0  0
  4 20  1  0  0  0
 20 22  1  0  0  0
 22 23  1  0  0  0
 23 24  1  0  0  0
 24 25  1  0  0  0
 25 26  1  0  0  0
 26 27  1  0  0  0
 25 28  1  0  0  0
 28 29  1  0  0  0
 28 30  1  0  0  0
  4  5  1  0  0  0
  5  6  2  0  0  0
  6  7  1  0  0  0
  7  8  2  0  0  0
  8  9  1  0  0  0
  9 10  2  0  0  0
 10 31  1  0  0  0
 31 32  1  0  0  0
 32 33  1  0  0  0
 33 34  1  0  0  0
 34 35  1  0  0  0
 35 36  1  0  0  0
 36 37  1  0  0  0
 37 38  1  0  0  0
 38 39  1  0  0  0
 39 40  1  0  0  0
  6 11  1  0  0  0
 11 12  1  0  0  0
 12 13  1  0  0  0
 13 14  1  0  0  0
 14 15  1  0  0  0
 15 16  1  0  0  0
 16 17  1  0  0  0
 10  1  1  0  0  0
 40 35  1  0  0  0
 17 11  1  0  0  0
  8  3  1  0  0  0
 27 22  1  0  0  0
 20 21  1  0  0  0
M  END
> <minimizedAffinity>
-5.87182

> <CNNscore>
0.2026380748

> <CNNaffinity>
6.0262622833

> <CNN_VS>
1.2211501598

> <CNNaffinity_variance>
0.1302829981

$$$$
[H]c1c(-c2nc3c([H])c(OC([H])([H])C([H])([H])C([H])([H])N4C([H])([H])C([H])([H])C([H])([H])C4([H])[H])c(OC([H])([H])[H])c([H])c3c(N([H])C3([H])C([H])([H])C([H])([H])C34C([H])([H])C([H])([H])N(C([H])([H])[H])C([H])([H])C4([H])[H])c2[H])oc(C([H])([H])C([H])([H])[H])c1[H]


 40 45  0  0  0  0  0  0  0  0999 V2000
   33.7441  -18.0413   35.4102 C   0  0  0  0  0  0  0  0  0  0  0  0
   35.0509  -18.3898   35.1787 C   0  0  0  0  0  0  0  0  0  0  0  0
   36.0328  -17.4275   35.4540 C   0  0  0  0  0  0  0  0  0  0  0  0
   35.7003  -16.1817   35.9375 C   0  0  0  0  0  0  0  0  0  0  0  0
   36.6156  -15.1849   36.2290 C   0  0  0  0  0  0  0  0  0  0  0  0
   36.2326  -13.9464   36.7128 C   0  0  0  0  0  0  0  0  0  0  0  0
   34.8762  -13.6536   36.9285 C   0  0  0  0  0  0  0  0  0  0  0  0
   34.0003  -14.6621   36.6288 C   0  0  0  0  0  0  0  0  0  0  0  0
   34.3642  -15.9121   36.1424 C   0  0  0  0  0  0  0  0  0  0  0  0
   33.4010  -16.8363   35.8796 N   0  0  0  0  0  0  0  0  0  0  0  0
   30.8626  -20.1743   35.1645 C   0  0  0  0  0  0  0  0  0  0  0  0
   31.6824  -20.7823   34.2424 C   0  0  0  0  0  0  0  0  0  0  0  0
   32.8714  -20.0702   34.2064 C   0  0  0  0  0  0  0  0  0  0  0  0
   32.7118  -19.0525   35.1204 C   0  0  0  0  0  0  0  0  0  0  0  0
   31.5234  -19.1580   35.6513 O   0  0  0  0  0  0  0  0  0  0  0  0
   29.4647  -22.1400   35.6866 C   0  0  0  0  0  0  0  0  0  0  0  0
   29.4932  -20.6450   35.4913 C   0  0  0  0  0  0  0  0  0  0  0  0
   37.4021  -17.7420   35.2459 N   0  0  0  0  0  0  0  0  0  0  0  0
   38.1511  -17.0556   35.4205 H   0  0  0  0  0  0  0  0  0  0  0  0
   37.8628  -19.0466   34.7790 C   0  0  0  0  0  0  0  0  0  0  0  0
   38.5142  -18.9853   33.4068 C   0  0  0  0  0  0  0  0  0  0  0  0
   39.8320  -18.7019   34.1423 C   0  0  0  0  0  0  0  0  0  0  0  0
   39.2159  -19.4545   35.3189 C   0  0  0  0  0  0  0  0  0  0  0  0
   39.5491  -18.8889   36.6716 C   0  0  0  0  0  0  0  0  0  0  0  0
   40.7333  -19.5476   37.3023 C   0  0  0  0  0  0  0  0  0  0  0  0
   40.6656  -20.9796   37.3418 N   0  0  0  0  0  0  0  0  0  0  0  0
   41.8666  -21.4977   36.6918 C   0  0  0  0  0  0  0  0  0  0  0  0
   39.5394  -21.5086   36.5981 C   0  0  0  0  0  0  0  0  0  0  0  0
   39.4699  -20.9308   35.2022 C   0  0  0  0  0  0  0  0  0  0  0  0
   37.1919  -12.9883   36.9867 O   0  0  0  0  0  0  0  0  0  0  0  0
   38.3616  -13.3760   37.6709 C   0  0  0  0  0  0  0  0  0  0  0  0
   34.5888  -12.4251   37.4040 O   0  0  0  0  0  0  0  0  0  0  0  0
   33.5123  -11.5862   37.3043 C   0  0  0  0  0  0  0  0  0  0  0  0
   32.3589  -12.0557   38.1517 C   0  0  0  0  0  0  0  0  0  0  0  0
   31.1517  -11.1857   37.8454 C   0  0  0  0  0  0  0  0  0  0  0  0
   29.9864  -12.0195   37.6989 N   0  0  0  0  0  0  0  0  0  0  0  0
   28.8182  -11.1622   37.4379 C   0  0  0  0  0  0  0  0  0  0  0  0
   28.6429  -10.4586   38.7665 C   0  0  0  0  0  0  0  0  0  0  0  0
   29.2063  -11.4523   39.7804 C   0  0  0  0  0  0  0  0  0  0  0  0
   29.5703  -12.6402   38.9439 C   0  0  0  0  0  0  0  0  0  0  0  0
 16 17  1  0  0  0
 17 11  1  0  0  0
 11 12  2  0  0  0
 12 13  1  0  0  0
 13 14  2  0  0  0
 14 15  1  0  0  0
 14  1  1  0  0  0
  1  2  2  0  0  0
  2  3  1  0  0  0
  3 18  1  0  0  0
 18 20  1  0  0  0
 20 21  1  0  0  0
 21 22  1  0  0  0
 22 23  1  0  0  0
 23 24  1  0  0  0
 24 25  1  0  0  0
 25 26  1  0  0  0
 26 27  1  0  0  0
 26 28  1  0  0  0
 28 29  1  0  0  0
  3  4  2  0  0  0
  4  5  1  0  0  0
  5  6  2  0  0  0
  6 30  1  0  0  0
 30 31  1  0  0  0
  6  7  1  0  0  0
  7 32  1  0  0  0
 32 33  1  0  0  0
 33 34  1  0  0  0
 34 35  1  0  0  0
 35 36  1  0  0  0
 36 37  1  0  0  0
 37 38  1  0  0  0
 38 39  1  0  0  0
 39 40  1  0  0  0
  7  8  2  0  0  0
  8  9  1  0  0  0
  9 10  2  0  0  0
 15 11  1  0  0  0
 10  1  1  0  0  0
 23 20  1  0  0  0
 29 23  1  0  0  0
  9  4  1  0  0  0
 40 36  1  0  0  0
 18 19  1  0  0  0
M  END
> <minimizedAffinity>
-8.61059

> <CNNscore>
0.7722306252

> <CNNaffinity>
7.6891860962

> <CNN_VS>
5.9378252029

> <CNNaffinity_variance>
0.0281106941

$$$$
[H]c1c(-c2nc3c([H])c(OC([H])([H])C([H])([H])C([H])([H])N4C([H])([H])C([H])([H])C([H])([H])C4([H])[H])c(OC([H])([H])[H])c([H])c3c(N([H])C3([H])C([H])([H])C([H])([H])C34C([H])([H])C([H])([H])N(C([H])([H])[H])C([H])([H])C4([H])[H])c2[H])oc(C([H])([H])C([H])([H])[H])c1[H]


 40 45  0  0  0  0  0  0  0  0999 V2000
   33.7133  -18.2078   35.4617 C   0  0  0  0  0  0  0  0  0  0  0  0
   35.0367  -18.5458   35.3320 C   0  0  0  0  0  0  0  0  0  0  0  0
   35.9855  -17.5466   35.5919 C   0  0  0  0  0  0  0  0  0  0  0  0
   35.6054  -16.2759   35.9626 C   0  0  0  0  0  0  0  0  0  0  0  0
   36.4861  -15.2425   36.2324 C   0  0  0  0  0  0  0  0  0  0  0  0
   36.0558  -13.9802   36.6011 C   0  0  0  0  0  0  0  0  0  0  0  0
   34.6846  -13.6998   36.7163 C   0  0  0  0  0  0  0  0  0  0  0  0
   33.8439  -14.7447   36.4415 C   0  0  0  0  0  0  0  0  0  0  0  0
   34.2555  -16.0191   36.0700 C   0  0  0  0  0  0  0  0  0  0  0  0
   33.3241  -16.9790   35.8208 N   0  0  0  0  0  0  0  0  0  0  0  0
   30.8911  -20.4191   35.2209 C   0  0  0  0  0  0  0  0  0  0  0  0
   31.7613  -21.0576   34.3683 C   0  0  0  0  0  0  0  0  0  0  0  0
   32.9353  -20.3205   34.3401 C   0  0  0  0  0  0  0  0  0  0  0  0
   32.7159  -19.2577   35.1881 C   0  0  0  0  0  0  0  0  0  0  0  0
   31.5090  -19.3618   35.6758 O   0  0  0  0  0  0  0  0  0  0  0  0
   29.4710  -22.4102   35.5517 C   0  0  0  0  0  0  0  0  0  0  0  0
   29.5196  -20.9034   35.5182 C   0  0  0  0  0  0  0  0  0  0  0  0
   37.3694  -17.8478   35.4865 N   0  0  0  0  0  0  0  0  0  0  0  0
   37.8940  -17.6992   34.6116 H   0  0  0  0  0  0  0  0  0  0  0  0
   38.1601  -18.3809   36.5924 C   0  0  0  0  0  0  0  0  0  0  0  0
   37.5111  -19.5860   37.2537 C   0  0  0  0  0  0  0  0  0  0  0  0
   38.2506  -20.4430   36.2161 C   0  0  0  0  0  0  0  0  0  0  0  0
   39.2737  -19.3112   36.1647 C   0  0  0  0  0  0  0  0  0  0  0  0
   39.8353  -19.0324   34.7981 C   0  0  0  0  0  0  0  0  0  0  0  0
   41.1177  -19.7545   34.5373 C   0  0  0  0  0  0  0  0  0  0  0  0
   42.1151  -19.5798   35.5529 N   0  0  0  0  0  0  0  0  0  0  0  0
   42.5166  -20.9070   36.0120 C   0  0  0  0  0  0  0  0  0  0  0  0
   41.6120  -18.8804   36.7186 C   0  0  0  0  0  0  0  0  0  0  0  0
   40.3238  -19.4903   37.2242 C   0  0  0  0  0  0  0  0  0  0  0  0
   36.9821  -12.9857   36.8586 O   0  0  0  0  0  0  0  0  0  0  0  0
   38.1835  -13.3302   37.5101 C   0  0  0  0  0  0  0  0  0  0  0  0
   34.3503  -12.4462   37.0830 O   0  0  0  0  0  0  0  0  0  0  0  0
   33.3123  -11.8975   37.7859 C   0  0  0  0  0  0  0  0  0  0  0  0
   31.9921  -12.1195   37.0954 C   0  0  0  0  0  0  0  0  0  0  0  0
   30.9259  -11.3241   37.8293 C   0  0  0  0  0  0  0  0  0  0  0  0
   29.6747  -12.0354   37.7719 N   0  0  0  0  0  0  0  0  0  0  0  0
   28.5756  -11.0586   37.6967 C   0  0  0  0  0  0  0  0  0  0  0  0
   28.6180  -10.4327   39.0742 C   0  0  0  0  0  0  0  0  0  0  0  0
   29.1882  -11.5400   39.9584 C   0  0  0  0  0  0  0  0  0  0  0  0
   29.3386  -12.6974   39.0198 C   0  0  0  0  0  0  0  0  0  0  0  0
 16 17  1  0  0  0
 17 11  1  0  0  0
 11 12  2  0  0  0
 12 13  1  0  0  0
 13 14  2  0  0  0
 14 15  1  0  0  0
 14  1  1  0  0  0
  1  2  2  0  0  0
  2  3  1  0  0  0
  3 18  1  0  0  0
 18 20  1  0  0  0
 20 21  1  0  0  0
 21 22  1  0  0  0
 22 23  1  0  0  0
 23 24  1  0  0  0
 24 25  1  0  0  0
 25 26  1  0  0  0
 26 27  1  0  0  0
 26 28  1  0  0  0
 28 29  1  0  0  0
  3  4  2  0  0  0
  4  5  1  0  0  0
  5  6  2  0  0  0
  6 30  1  0  0  0
 30 31  1  0  0  0
  6  7  1  0  0  0
  7 32  1  0  0  0
 32 33  1  0  0  0
 33 34  1  0  0  0
 34 35  1  0  0  0
 35 36  1  0  0  0
 36 37  1  0  0  0
 37 38  1  0  0  0
 38 39  1  0  0  0
 39 40  1  0  0  0
  7  8  2  0  0  0
  8  9  1  0  0  0
  9 10  2  0  0  0
 15 11  1  0  0  0
 10  1  1  0  0  0
 23 20  1  0  0  0
 29 23  1  0  0  0
  9  4  1  0  0  0
 40 36  1  0  0  0
 18 19  1  0  0  0
M  END
> <minimizedAffinity>
-8.70094

> <CNNscore>
0.7096558809

> <CNNaffinity>
7.6643767357

> <CNN_VS>
5.4390702248

> <CNNaffinity_variance>
0.0428039804

$$$$
[H]c1c(-c2nc3c([H])c(OC([H])([H])C([H])([H])C([H])([H])N4C([H])([H])C([H])([H])C([H])([H])C4([H])[H])c(OC([H])([H])[H])c([H])c3c(N([H])C3([H])C([H])([H])C([H])([H])C34C([H])([H])C([H])([H])N(C([H])([H])[H])C([H])([H])C4([H])[H])c2[H])oc(C([H])([H])C([H])([H])[H])c1[H]


 40 45  0  0  0  0  0  0  0  0999 V2000
   38.6361  -21.2352   37.1931 C   0  0  0  0  0  0  0  0  0  0  0  0
   39.0444  -21.3015   38.5014 C   0  0  0  0  0  0  0  0  0  0  0  0
   38.0479  -21.3103   39.4878 C   0  0  0  0  0  0  0  0  0  0  0  0
   36.7120  -21.2548   39.1580 C   0  0  0  0  0  0  0  0  0  0  0  0
   35.6775  -21.2582   40.0778 C   0  0  0  0  0  0  0  0  0  0  0  0
   34.3483  -21.1999   39.6976 C   0  0  0  0  0  0  0  0  0  0  0  0
   33.9977  -21.1341   38.3394 C   0  0  0  0  0  0  0  0  0  0  0  0
   35.0460  -21.1321   37.4590 C   0  0  0  0  0  0  0  0  0  0  0  0
   36.3868  -21.1901   37.8202 C   0  0  0  0  0  0  0  0  0  0  0  0
   37.3432  -21.1807   36.8526 N   0  0  0  0  0  0  0  0  0  0  0  0
   41.0757  -20.5461   34.6463 C   0  0  0  0  0  0  0  0  0  0  0  0
   41.2336  -21.9078   34.7584 C   0  0  0  0  0  0  0  0  0  0  0  0
   40.3448  -22.3536   35.7247 C   0  0  0  0  0  0  0  0  0  0  0  0
   39.6833  -21.2254   36.1562 C   0  0  0  0  0  0  0  0  0  0  0  0
   40.1465  -20.1982   35.4962 O   0  0  0  0  0  0  0  0  0  0  0  0
   41.1365  -18.4021   33.4257 C   0  0  0  0  0  0  0  0  0  0  0  0
   41.8543  -19.6974   33.7097 C   0  0  0  0  0  0  0  0  0  0  0  0
   38.4160  -21.3926   40.8571 N   0  0  0  0  0  0  0  0  0  0  0  0
   38.5533  -20.5504   41.4355 H   0  0  0  0  0  0  0  0  0  0  0  0
   38.6234  -22.6574   41.5566 C   0  0  0  0  0  0  0  0  0  0  0  0
   38.1684  -23.8605   40.7464 C   0  0  0  0  0  0  0  0  0  0  0  0
   39.5808  -23.8782   40.1441 C   0  0  0  0  0  0  0  0  0  0  0  0
   40.0283  -23.2060   41.4395 C   0  0  0  0  0  0  0  0  0  0  0  0
   41.0980  -22.1630   41.2701 C   0  0  0  0  0  0  0  0  0  0  0  0
   42.4766  -22.7055   41.4677 C   0  0  0  0  0  0  0  0  0  0  0  0
   42.6572  -23.4398   42.6863 N   0  0  0  0  0  0  0  0  0  0  0  0
   43.1689  -24.7619   42.3349 C   0  0  0  0  0  0  0  0  0  0  0  0
   41.4137  -23.6602   43.3978 C   0  0  0  0  0  0  0  0  0  0  0  0
   40.3446  -24.2301   42.4925 C   0  0  0  0  0  0  0  0  0  0  0  0
   33.3563  -21.2065   40.6615 O   0  0  0  0  0  0  0  0  0  0  0  0
   33.0819  -22.4086   41.3441 C   0  0  0  0  0  0  0  0  0  0  0  0
   32.6808  -21.0829   38.0546 O   0  0  0  0  0  0  0  0  0  0  0  0
   31.9014  -21.5573   37.0348 C   0  0  0  0  0  0  0  0  0  0  0  0
   30.6732  -22.2597   37.5518 C   0  0  0  0  0  0  0  0  0  0  0  0
   30.7848  -23.7362   37.2121 C   0  0  0  0  0  0  0  0  0  0  0  0
   29.5186  -24.2093   36.7143 N   0  0  0  0  0  0  0  0  0  0  0  0
   29.5998  -25.6660   36.5166 C   0  0  0  0  0  0  0  0  0  0  0  0
   30.5547  -25.7707   35.3469 C   0  0  0  0  0  0  0  0  0  0  0  0
   30.3449  -24.4612   34.5890 C   0  0  0  0  0  0  0  0  0  0  0  0
   29.2480  -23.7848   35.3523 C   0  0  0  0  0  0  0  0  0  0  0  0
 16 17  1  0  0  0
 17 11  1  0  0  0
 11 12  2  0  0  0
 12 13  1  0  0  0
 13 14  2  0  0  0
 14 15  1  0  0  0
 14  1  1  0  0  0
  1  2  2  0  0  0
  2  3  1  0  0  0
  3 18  1  0  0  0
 18 20  1  0  0  0
 20 21  1  0  0  0
 21 22  1  0  0  0
 22 23  1  0  0  0
 23 24  1  0  0  0
 24 25  1  0  0  0
 25 26  1  0  0  0
 26 27  1  0  0  0
 26 28  1  0  0  0
 28 29  1  0  0  0
  3  4  2  0  0  0
  4  5  1  0  0  0
  5  6  2  0  0  0
  6 30  1  0  0  0
 30 31  1  0  0  0
  6  7  1  0  0  0
  7 32  1  0  0  0
 32 33  1  0  0  0
 33 34  1  0  0  0
 34 35  1  0  0  0
 35 36  1  0  0  0
 36 37  1  0  0  0
 37 38  1  0  0  0
 38 39  1  0  0  0
 39 40  1  0  0  0
  7  8  2  0  0  0
  8  9  1  0  0  0
  9 10  2  0  0  0
 15 11  1  0  0  0
 10  1  1  0  0  0
 23 20  1  0  0  0
 29 23  1  0  0  0
  9  4  1  0  0  0
 40 36  1  0  0  0
 18 19  1  0  0  0
M  END
> <minimizedAffinity>
-3.56365

> <CNNscore>
0.5160157084

> <CNNaffinity>
6.2702288628

> <CNN_VS>
3.2355365753

> <CNNaffinity_variance>
0.5497404337

$$$$
[H]c1c(-c2nc3c([H])c(OC([H])([H])C([H])([H])C([H])([H])N4C([H])([H])C([H])([H])C([H])([H])C4([H])[H])c(OC([H])([H])[H])c([H])c3c(N([H])C3([H])C([H])([H])C([H])([H])C34C([H])([H])C([H])([H])N(C([H])([H])[H])C([H])([H])C4([H])[H])c2[H])oc(C([H])([H])C([H])([H])[H])c1[H]


 40 45  0  0  0  0  0  0  0  0999 V2000
   34.3241  -18.8833   35.3758 C   0  0  0  0  0  0  0  0  0  0  0  0
   35.6771  -19.0237   35.1958 C   0  0  0  0  0  0  0  0  0  0  0  0
   36.4834  -17.9114   35.4763 C   0  0  0  0  0  0  0  0  0  0  0  0
   35.9402  -16.7244   35.9151 C   0  0  0  0  0  0  0  0  0  0  0  0
   36.6746  -15.5883   36.2088 C   0  0  0  0  0  0  0  0  0  0  0  0
   36.0828  -14.4167   36.6465 C   0  0  0  0  0  0  0  0  0  0  0  0
   34.6903  -14.3394   36.8106 C   0  0  0  0  0  0  0  0  0  0  0  0
   33.9969  -15.4809   36.5103 C   0  0  0  0  0  0  0  0  0  0  0  0
   34.5718  -16.6671   36.0698 C   0  0  0  0  0  0  0  0  0  0  0  0
   33.7775  -17.7385   35.8013 N   0  0  0  0  0  0  0  0  0  0  0  0
   32.5485  -22.0025   35.2023 C   0  0  0  0  0  0  0  0  0  0  0  0
   32.0135  -21.3681   34.1055 C   0  0  0  0  0  0  0  0  0  0  0  0
   32.6022  -20.1159   34.0184 C   0  0  0  0  0  0  0  0  0  0  0  0
   33.4765  -20.0521   35.0806 C   0  0  0  0  0  0  0  0  0  0  0  0
   33.4071  -21.1774   35.7396 O   0  0  0  0  0  0  0  0  0  0  0  0
   30.9727  -23.8712   34.8629 C   0  0  0  0  0  0  0  0  0  0  0  0
   32.1696  -23.3720   35.6323 C   0  0  0  0  0  0  0  0  0  0  0  0
   37.8918  -18.0079   35.3206 N   0  0  0  0  0  0  0  0  0  0  0  0
   38.5192  -17.2204   35.5419 H   0  0  0  0  0  0  0  0  0  0  0  0
   38.5650  -19.2137   34.8465 C   0  0  0  0  0  0  0  0  0  0  0  0
   39.1021  -19.0712   33.4315 C   0  0  0  0  0  0  0  0  0  0  0  0
   40.3850  -18.5176   34.0685 C   0  0  0  0  0  0  0  0  0  0  0  0
   40.0034  -19.3376   35.2983 C   0  0  0  0  0  0  0  0  0  0  0  0
   40.3077  -18.6768   36.6142 C   0  0  0  0  0  0  0  0  0  0  0  0
   41.6352  -19.0763   37.1730 C   0  0  0  0  0  0  0  0  0  0  0  0
   41.8485  -20.4928   37.2428 N   0  0  0  0  0  0  0  0  0  0  0  0
   43.0825  -20.7908   36.5205 C   0  0  0  0  0  0  0  0  0  0  0  0
   40.8003  -21.2507   36.5887 C   0  0  0  0  0  0  0  0  0  0  0  0
   40.5302  -20.7406   35.1909 C   0  0  0  0  0  0  0  0  0  0  0  0
   36.8675  -13.3121   36.9249 O   0  0  0  0  0  0  0  0  0  0  0  0
   38.0358  -13.4867   37.6937 C   0  0  0  0  0  0  0  0  0  0  0  0
   34.1947  -13.1626   37.2434 O   0  0  0  0  0  0  0  0  0  0  0  0
   33.2771  -12.7993   38.1913 C   0  0  0  0  0  0  0  0  0  0  0  0
   32.1033  -12.0770   37.5835 C   0  0  0  0  0  0  0  0  0  0  0  0
   32.6252  -10.8812   36.8050 C   0  0  0  0  0  0  0  0  0  0  0  0
   32.8965   -9.7992   37.7162 N   0  0  0  0  0  0  0  0  0  0  0  0
   31.8892   -8.7444   37.5150 C   0  0  0  0  0  0  0  0  0  0  0  0
   32.2576   -8.2166   36.1451 C   0  0  0  0  0  0  0  0  0  0  0  0
   33.7577   -8.4859   36.0439 C   0  0  0  0  0  0  0  0  0  0  0  0
   34.1027   -9.0628   37.3823 C   0  0  0  0  0  0  0  0  0  0  0  0
 16 17  1  0  0  0
 17 11  1  0  0  0
 11 12  2  0  0  0
 12 13  1  0  0  0
 13 14  2  0  0  0
 14 15  1  0  0  0
 14  1  1  0  0  0
  1  2  2  0  0  0
  2  3  1  0  0  0
  3 18  1  0  0  0
 18 20  1  0  0  0
 20 21  1  0  0  0
 21 22  1  0  0  0
 22 23  1  0  0  0
 23 24  1  0  0  0
 24 25  1  0  0  0
 25 26  1  0  0  0
 26 27  1  0  0  0
 26 28  1  0  0  0
 28 29  1  0  0  0
  3  4  2  0  0  0
  4  5  1  0  0  0
  5  6  2  0  0  0
  6 30  1  0  0  0
 30 31  1  0  0  0
  6  7  1  0  0  0
  7 32  1  0  0  0
 32 33  1  0  0  0
 33 34  1  0  0  0
 34 35  1  0  0  0
 35 36  1  0  0  0
 36 37  1  0  0  0
 37 38  1  0  0  0
 38 39  1  0  0  0
 39 40  1  0  0  0
  7  8  2  0  0  0
  8  9  1  0  0  0
  9 10  2  0  0  0
 15 11  1  0  0  0
 10  1  1  0  0  0
 23 20  1  0  0  0
 29 23  1  0  0  0
  9  4  1  0  0  0
 40 36  1  0  0  0
 18 19  1  0  0  0
M  END
> <minimizedAffinity>
-6.87239

> <CNNscore>
0.4409508109

> <CNNaffinity>
7.0862746239

> <CNN_VS>
3.1246986389

> <CNNaffinity_variance>
0.0249400698

$$$$
[H]c1c(-c2nc3c([H])c(OC([H])([H])C([H])([H])C([H])([H])N4C([H])([H])C([H])([H])C([H])([H])C4([H])[H])c(OC([H])([H])[H])c([H])c3c(N([H])C3([H])C([H])([H])C([H])([H])C34C([H])([H])C([H])([H])N(C([H])([H])[H])C([H])([H])C4([H])[H])c2[H])oc(C([H])([H])C([H])([H])[H])c1[H]


 40 45  0  0  0  0  0  0  0  0999 V2000
   34.1240  -19.3965   35.7042 C   0  0  0  0  0  0  0  0  0  0  0  0
   35.4407  -19.6219   36.0173 C   0  0  0  0  0  0  0  0  0  0  0  0
   36.2017  -18.5204   36.4339 C   0  0  0  0  0  0  0  0  0  0  0  0
   35.6506  -17.2617   36.5258 C   0  0  0  0  0  0  0  0  0  0  0  0
   36.3418  -16.1316   36.9275 C   0  0  0  0  0  0  0  0  0  0  0  0
   35.7441  -14.8859   37.0032 C   0  0  0  0  0  0  0  0  0  0  0  0
   34.3900  -14.7234   36.6687 C   0  0  0  0  0  0  0  0  0  0  0  0
   33.7389  -15.8617   36.2756 C   0  0  0  0  0  0  0  0  0  0  0  0
   34.3205  -17.1213   36.1929 C   0  0  0  0  0  0  0  0  0  0  0  0
   33.5703  -18.1813   35.7870 N   0  0  0  0  0  0  0  0  0  0  0  0
   32.3482  -22.4845   35.2308 C   0  0  0  0  0  0  0  0  0  0  0  0
   32.0489  -21.8587   34.0431 C   0  0  0  0  0  0  0  0  0  0  0  0
   32.6703  -20.6194   34.0554 C   0  0  0  0  0  0  0  0  0  0  0  0
   33.3242  -20.5541   35.2657 C   0  0  0  0  0  0  0  0  0  0  0  0
   33.1045  -21.6666   35.9133 O   0  0  0  0  0  0  0  0  0  0  0  0
   30.3603  -23.9191   35.5145 C   0  0  0  0  0  0  0  0  0  0  0  0
   31.8638  -23.8391   35.5970 C   0  0  0  0  0  0  0  0  0  0  0  0
   37.5662  -18.7015   36.7840 N   0  0  0  0  0  0  0  0  0  0  0  0
   38.0544  -18.0570   37.4235 H   0  0  0  0  0  0  0  0  0  0  0  0
   38.3832  -19.8025   36.2814 C   0  0  0  0  0  0  0  0  0  0  0  0
   39.8521  -19.4339   36.1496 C   0  0  0  0  0  0  0  0  0  0  0  0
   40.0063  -19.8890   37.6080 C   0  0  0  0  0  0  0  0  0  0  0  0
   38.8059  -20.7939   37.3429 C   0  0  0  0  0  0  0  0  0  0  0  0
   37.8502  -20.9253   38.4962 C   0  0  0  0  0  0  0  0  0  0  0  0
   38.1341  -22.1152   39.3550 C   0  0  0  0  0  0  0  0  0  0  0  0
   38.2531  -23.3511   38.6373 N   0  0  0  0  0  0  0  0  0  0  0  0
   39.5483  -23.9360   38.9746 C   0  0  0  0  0  0  0  0  0  0  0  0
   38.2512  -23.1671   37.1995 C   0  0  0  0  0  0  0  0  0  0  0  0
   39.2449  -22.1114   36.7693 C   0  0  0  0  0  0  0  0  0  0  0  0
   36.4848  -13.7913   37.4115 O   0  0  0  0  0  0  0  0  0  0  0  0
   36.6595  -12.7181   36.5148 C   0  0  0  0  0  0  0  0  0  0  0  0
   33.8846  -13.4778   36.7724 O   0  0  0  0  0  0  0  0  0  0  0  0
   32.6262  -12.9448   36.7021 C   0  0  0  0  0  0  0  0  0  0  0  0
   32.0356  -12.7265   38.0705 C   0  0  0  0  0  0  0  0  0  0  0  0
   30.7232  -11.9775   37.9140 C   0  0  0  0  0  0  0  0  0  0  0  0
   29.8199  -12.3711   38.9646 N   0  0  0  0  0  0  0  0  0  0  0  0
   28.5212  -12.7241   38.3675 C   0  0  0  0  0  0  0  0  0  0  0  0
   28.0193  -11.3780   37.8909 C   0  0  0  0  0  0  0  0  0  0  0  0
   28.6757  -10.3861   38.8492 C   0  0  0  0  0  0  0  0  0  0  0  0
   29.4151  -11.2636   39.8119 C   0  0  0  0  0  0  0  0  0  0  0  0
 16 17  1  0  0  0
 17 11  1  0  0  0
 11 12  2  0  0  0
 12 13  1  0  0  0
 13 14  2  0  0  0
 14 15  1  0  0  0
 14  1  1  0  0  0
  1  2  2  0  0  0
  2  3  1  0  0  0
  3 18  1  0  0  0
 18 20  1  0  0  0
 20 21  1  0  0  0
 21 22  1  0  0  0
 22 23  1  0  0  0
 23 24  1  0  0  0
 24 25  1  0  0  0
 25 26  1  0  0  0
 26 27  1  0  0  0
 26 28  1  0  0  0
 28 29  1  0  0  0
  3  4  2  0  0  0
  4  5  1  0  0  0
  5  6  2  0  0  0
  6 30  1  0  0  0
 30 31  1  0  0  0
  6  7  1  0  0  0
  7 32  1  0  0  0
 32 33  1  0  0  0
 33 34  1  0  0  0
 34 35  1  0  0  0
 35 36  1  0  0  0
 36 37  1  0  0  0
 37 38  1  0  0  0
 38 39  1  0  0  0
 39 40  1  0  0  0
  7  8  2  0  0  0
  8  9  1  0  0  0
  9 10  2  0  0  0
 15 11  1  0  0  0
 10  1  1  0  0  0
 23 20  1  0  0  0
 29 23  1  0  0  0
  9  4  1  0  0  0
 40 36  1  0  0  0
 18 19  1  0  0  0
M  END
> <minimizedAffinity>
-6.19858

> <CNNscore>
0.3402354419

> <CNNaffinity>
6.7659211159

> <CNN_VS>
2.3020062447

> <CNNaffinity_variance>
0.1242444962

$$$$
[H]c1c(-c2nc3c([H])c(OC([H])([H])C([H])([H])C([H])([H])N4C([H])([H])C([H])([H])C([H])([H])C4([H])[H])c(OC([H])([H])[H])c([H])c3c(N([H])C3([H])C([H])([H])C([H])([H])C34C([H])([H])C([H])([H])N(C([H])([H])[H])C([H])([H])C4([H])[H])c2[H])oc(C([H])([H])C([H])([H])[H])c1[H]


 40 45  0  0  0  0  0  0  0  0999 V2000
   35.6795  -16.3533   36.4325 C   0  0  0  0  0  0  0  0  0  0  0  0
   34.7255  -17.2483   36.0183 C   0  0  0  0  0  0  0  0  0  0  0  0
   35.1316  -18.5749   35.8152 C   0  0  0  0  0  0  0  0  0  0  0  0
   36.4357  -18.9655   36.0232 C   0  0  0  0  0  0  0  0  0  0  0  0
   36.9054  -20.2549   35.8413 C   0  0  0  0  0  0  0  0  0  0  0  0
   38.2272  -20.5995   36.0624 C   0  0  0  0  0  0  0  0  0  0  0  0
   39.1542  -19.6339   36.4870 C   0  0  0  0  0  0  0  0  0  0  0  0
   38.6545  -18.3706   36.6556 C   0  0  0  0  0  0  0  0  0  0  0  0
   37.3314  -18.0041   36.4392 C   0  0  0  0  0  0  0  0  0  0  0  0
   36.9514  -16.7133   36.6400 N   0  0  0  0  0  0  0  0  0  0  0  0
   34.0462  -13.2271   37.1201 C   0  0  0  0  0  0  0  0  0  0  0  0
   35.2910  -12.7659   36.7600 C   0  0  0  0  0  0  0  0  0  0  0  0
   36.0730  -13.8690   36.4535 C   0  0  0  0  0  0  0  0  0  0  0  0
   35.2530  -14.9587   36.6454 C   0  0  0  0  0  0  0  0  0  0  0  0
   34.0822  -14.5302   37.0339 O   0  0  0  0  0  0  0  0  0  0  0  0
   33.3982  -10.9372   37.7732 C   0  0  0  0  0  0  0  0  0  0  0  0
   32.9212  -12.3452   37.5204 C   0  0  0  0  0  0  0  0  0  0  0  0
   34.1804  -19.5447   35.4005 N   0  0  0  0  0  0  0  0  0  0  0  0
   34.4594  -20.4018   34.9003 H   0  0  0  0  0  0  0  0  0  0  0  0
   32.7468  -19.4179   35.6471 C   0  0  0  0  0  0  0  0  0  0  0  0
   32.0170  -18.6984   34.5244 C   0  0  0  0  0  0  0  0  0  0  0  0
   31.8556  -20.0759   33.8653 C   0  0  0  0  0  0  0  0  0  0  0  0
   31.9445  -20.6463   35.2784 C   0  0  0  0  0  0  0  0  0  0  0  0
   32.6966  -21.9438   35.3870 C   0  0  0  0  0  0  0  0  0  0  0  0
   31.8045  -23.1411   35.3194 C   0  0  0  0  0  0  0  0  0  0  0  0
   30.6952  -23.1076   36.2278 N   0  0  0  0  0  0  0  0  0  0  0  0
   29.4756  -23.2851   35.4440 C   0  0  0  0  0  0  0  0  0  0  0  0
   30.5627  -21.8325   36.9044 C   0  0  0  0  0  0  0  0  0  0  0  0
   30.5909  -20.6765   35.9298 C   0  0  0  0  0  0  0  0  0  0  0  0
   38.6401  -21.9047   35.8641 O   0  0  0  0  0  0  0  0  0  0  0  0
   38.9894  -22.3151   34.5618 C   0  0  0  0  0  0  0  0  0  0  0  0
   40.4207  -20.0531   36.6820 O   0  0  0  0  0  0  0  0  0  0  0  0
   41.6096  -19.8443   36.0375 C   0  0  0  0  0  0  0  0  0  0  0  0
   42.5819  -19.0777   36.8954 C   0  0  0  0  0  0  0  0  0  0  0  0
   42.0894  -19.1158   38.3321 C   0  0  0  0  0  0  0  0  0  0  0  0
   42.8116  -20.1287   39.0582 N   0  0  0  0  0  0  0  0  0  0  0  0
   42.0133  -20.5366   40.2261 C   0  0  0  0  0  0  0  0  0  0  0  0
   42.0752  -19.2992   41.0956 C   0  0  0  0  0  0  0  0  0  0  0  0
   43.4037  -18.6512   40.7104 C   0  0  0  0  0  0  0  0  0  0  0  0
   43.9935  -19.6154   39.7277 C   0  0  0  0  0  0  0  0  0  0  0  0
 16 17  1  0  0  0
 17 11  1  0  0  0
 11 12  2  0  0  0
 12 13  1  0  0  0
 13 14  2  0  0  0
 14 15  1  0  0  0
 14  1  1  0  0  0
  1  2  2  0  0  0
  2  3  1  0  0  0
  3 18  1  0  0  0
 18 20  1  0  0  0
 20 21  1  0  0  0
 21 22  1  0  0  0
 22 23  1  0  0  0
 23 24  1  0  0  0
 24 25  1  0  0  0
 25 26  1  0  0  0
 26 27  1  0  0  0
 26 28  1  0  0  0
 28 29  1  0  0  0
  3  4  2  0  0  0
  4  5  1  0  0  0
  5  6  2  0  0  0
  6 30  1  0  0  0
 30 31  1  0  0  0
  6  7  1  0  0  0
  7 32  1  0  0  0
 32 33  1  0  0  0
 33 34  1  0  0  0
 34 35  1  0  0  0
 35 36  1  0  0  0
 36 37  1  0  0  0
 37 38  1  0  0  0
 38 39  1  0  0  0
 39 40  1  0  0  0
  7  8  2  0  0  0
  8  9  1  0  0  0
  9 10  2  0  0  0
 15 11  1  0  0  0
 10  1  1  0  0  0
 23 20  1  0  0  0
 29 23  1  0  0  0
  9  4  1  0  0  0
 40 36  1  0  0  0
 18 19  1  0  0  0
M  END
> <minimizedAffinity>
-7.27264

> <CNNscore>
0.3143115938

> <CNNaffinity>
6.5402998924

> <CNN_VS>
2.0556921959

> <CNNaffinity_variance>
0.1106736660

$$$$
[H]c1c(-c2nc3c([H])c(OC([H])([H])C([H])([H])C([H])([H])N4C([H])([H])C([H])([H])C([H])([H])C4([H])[H])c(OC([H])([H])[H])c([H])c3c(N([H])C3([H])C([H])([H])C([H])([H])C34C([H])([H])C([H])([H])N(C([H])([H])[H])C([H])([H])C4([H])[H])c2[H])oc(C([H])([H])C([H])([H])[H])c1[H]


 40 45  0  0  0  0  0  0  0  0999 V2000
   36.4464  -17.2684   37.1694 C   0  0  0  0  0  0  0  0  0  0  0  0
   37.6801  -17.7333   36.7892 C   0  0  0  0  0  0  0  0  0  0  0  0
   37.8620  -19.1232   36.7534 C   0  0  0  0  0  0  0  0  0  0  0  0
   36.8436  -19.9884   37.0861 C   0  0  0  0  0  0  0  0  0  0  0  0
   36.9532  -21.3683   37.0744 C   0  0  0  0  0  0  0  0  0  0  0  0
   35.9004  -22.1977   37.4184 C   0  0  0  0  0  0  0  0  0  0  0  0
   34.6615  -21.6567   37.7984 C   0  0  0  0  0  0  0  0  0  0  0  0
   34.5901  -20.2896   37.7990 C   0  0  0  0  0  0  0  0  0  0  0  0
   35.6350  -19.4394   37.4570 C   0  0  0  0  0  0  0  0  0  0  0  0
   35.4446  -18.0928   37.4964 N   0  0  0  0  0  0  0  0  0  0  0  0
   35.3322  -13.8522   37.1426 C   0  0  0  0  0  0  0  0  0  0  0  0
   36.6721  -13.6587   37.3855 C   0  0  0  0  0  0  0  0  0  0  0  0
   37.2735  -14.9072   37.4291 C   0  0  0  0  0  0  0  0  0  0  0  0
   36.2553  -15.8076   37.2077 C   0  0  0  0  0  0  0  0  0  0  0  0
   35.1438  -15.1414   37.0467 O   0  0  0  0  0  0  0  0  0  0  0  0
   33.0604  -13.0921   37.7356 C   0  0  0  0  0  0  0  0  0  0  0  0
   34.3453  -12.7495   37.0247 C   0  0  0  0  0  0  0  0  0  0  0  0
   39.1155  -19.6573   36.3525 N   0  0  0  0  0  0  0  0  0  0  0  0
   39.2041  -20.2900   35.5435 H   0  0  0  0  0  0  0  0  0  0  0  0
   40.3701  -19.3574   37.0367 C   0  0  0  0  0  0  0  0  0  0  0  0
   41.0540  -20.5994   37.5850 C   0  0  0  0  0  0  0  0  0  0  0  0
   41.7431  -20.7162   36.2177 C   0  0  0  0  0  0  0  0  0  0  0  0
   41.5578  -19.2046   36.1122 C   0  0  0  0  0  0  0  0  0  0  0  0
   41.2213  -18.7066   34.7340 C   0  0  0  0  0  0  0  0  0  0  0  0
   42.4256  -18.2768   33.9601 C   0  0  0  0  0  0  0  0  0  0  0  0
   43.2773  -17.3529   34.6513 N   0  0  0  0  0  0  0  0  0  0  0  0
   44.6214  -17.9239   34.6769 C   0  0  0  0  0  0  0  0  0  0  0  0
   42.8901  -17.1602   36.0348 C   0  0  0  0  0  0  0  0  0  0  0  0
   42.7065  -18.4784   36.7530 C   0  0  0  0  0  0  0  0  0  0  0  0
   36.0680  -23.5704   37.3883 O   0  0  0  0  0  0  0  0  0  0  0  0
   37.3728  -24.0921   37.2795 C   0  0  0  0  0  0  0  0  0  0  0  0
   33.6879  -22.5340   38.1153 O   0  0  0  0  0  0  0  0  0  0  0  0
   32.3202  -22.5004   38.0852 C   0  0  0  0  0  0  0  0  0  0  0  0
   31.7944  -22.4516   36.6745 C   0  0  0  0  0  0  0  0  0  0  0  0
   31.3748  -21.0243   36.3668 C   0  0  0  0  0  0  0  0  0  0  0  0
   31.1072  -20.8981   34.9571 N   0  0  0  0  0  0  0  0  0  0  0  0
   32.3609  -21.1089   34.2145 C   0  0  0  0  0  0  0  0  0  0  0  0
   33.1552  -19.8745   34.5837 C   0  0  0  0  0  0  0  0  0  0  0  0
   32.0828  -18.8237   34.8647 C   0  0  0  0  0  0  0  0  0  0  0  0
   30.8023  -19.5364   34.5553 C   0  0  0  0  0  0  0  0  0  0  0  0
 16 17  1  0  0  0
 17 11  1  0  0  0
 11 12  2  0  0  0
 12 13  1  0  0  0
 13 14  2  0  0  0
 14 15  1  0  0  0
 14  1  1  0  0  0
  1  2  2  0  0  0
  2  3  1  0  0  0
  3 18  1  0  0  0
 18 20  1  0  0  0
 20 21  1  0  0  0
 21 22  1  0  0  0
 22 23  1  0  0  0
 23 24  1  0  0  0
 24 25  1  0  0  0
 25 26  1  0  0  0
 26 27  1  0  0  0
 26 28  1  0  0  0
 28 29  1  0  0  0
  3  4  2  0  0  0
  4  5  1  0  0  0
  5  6  2  0  0  0
  6 30  1  0  0  0
 30 31  1  0  0  0
  6  7  1  0  0  0
  7 32  1  0  0  0
 32 33  1  0  0  0
 33 34  1  0  0  0
 34 35  1  0  0  0
 35 36  1  0  0  0
 36 37  1  0  0  0
 37 38  1  0  0  0
 38 39  1  0  0  0
 39 40  1  0  0  0
  7  8  2  0  0  0
  8  9  1  0  0  0
  9 10  2  0  0  0
 15 11  1  0  0  0
 10  1  1  0  0  0
 23 20  1  0  0  0
 29 23  1  0  0  0
  9  4  1  0  0  0
 40 36  1  0  0  0
 18 19  1  0  0  0
M  END
> <minimizedAffinity>
-6.84566

> <CNNscore>
0.2767353952

> <CNNaffinity>
6.5366239548

> <CNN_VS>
1.8089152575

> <CNNaffinity_variance>
0.2341471463

$$$$
[H]c1c(-c2nc3c([H])c(OC([H])([H])C([H])([H])C([H])([H])N4C([H])([H])C([H])([H])C([H])([H])C4([H])[H])c(OC([H])([H])[H])c([H])c3c(N([H])C3([H])C([H])([H])C([H])([H])C34C([H])([H])C([H])([H])N(C([H])([H])[H])C([H])([H])C4([H])[H])c2[H])oc(C([H])([H])C([H])([H])[H])c1[H]


 40 45  0  0  0  0  0  0  0  0999 V2000
   34.3581  -19.1992   35.9948 C   0  0  0  0  0  0  0  0  0  0  0  0
   34.6105  -17.9514   36.5066 C   0  0  0  0  0  0  0  0  0  0  0  0
   35.9528  -17.5869   36.6836 C   0  0  0  0  0  0  0  0  0  0  0  0
   36.9782  -18.4462   36.3571 C   0  0  0  0  0  0  0  0  0  0  0  0
   38.3229  -18.1535   36.5066 C   0  0  0  0  0  0  0  0  0  0  0  0
   39.3187  -19.0514   36.1648 C   0  0  0  0  0  0  0  0  0  0  0  0
   38.9920  -20.3142   35.6447 C   0  0  0  0  0  0  0  0  0  0  0  0
   37.6535  -20.5689   35.5114 C   0  0  0  0  0  0  0  0  0  0  0  0
   36.6385  -19.6814   35.8484 C   0  0  0  0  0  0  0  0  0  0  0  0
   35.3404  -20.0482   35.6715 N   0  0  0  0  0  0  0  0  0  0  0  0
   31.0969  -20.7023   35.8600 C   0  0  0  0  0  0  0  0  0  0  0  0
   30.8319  -19.5123   35.2232 C   0  0  0  0  0  0  0  0  0  0  0  0
   32.0126  -18.7865   35.1854 C   0  0  0  0  0  0  0  0  0  0  0  0
   32.9472  -19.5826   35.8093 C   0  0  0  0  0  0  0  0  0  0  0  0
   32.3624  -20.6885   36.1840 O   0  0  0  0  0  0  0  0  0  0  0  0
   30.1495  -22.2694   37.5144 C   0  0  0  0  0  0  0  0  0  0  0  0
   30.0802  -21.7576   36.0977 C   0  0  0  0  0  0  0  0  0  0  0  0
   36.2695  -16.3008   37.1963 N   0  0  0  0  0  0  0  0  0  0  0  0
   36.5627  -16.1618   38.1748 H   0  0  0  0  0  0  0  0  0  0  0  0
   36.2142  -15.0822   36.3938 C   0  0  0  0  0  0  0  0  0  0  0  0
   35.7879  -15.3410   34.9578 C   0  0  0  0  0  0  0  0  0  0  0  0
   34.3431  -15.1702   35.4488 C   0  0  0  0  0  0  0  0  0  0  0  0
   34.9322  -14.2949   36.5520 C   0  0  0  0  0  0  0  0  0  0  0  0
   34.2672  -14.4398   37.8928 C   0  0  0  0  0  0  0  0  0  0  0  0
   33.1933  -13.4260   38.1226 C   0  0  0  0  0  0  0  0  0  0  0  0
   33.5965  -12.0699   37.8881 N   0  0  0  0  0  0  0  0  0  0  0  0
   32.6709  -11.4948   36.9155 C   0  0  0  0  0  0  0  0  0  0  0  0
   34.9180  -11.9712   37.3007 C   0  0  0  0  0  0  0  0  0  0  0  0
   35.0619  -12.8701   36.0931 C   0  0  0  0  0  0  0  0  0  0  0  0
   40.6465  -18.7040   36.3362 O   0  0  0  0  0  0  0  0  0  0  0  0
   41.2048  -18.7751   37.6284 C   0  0  0  0  0  0  0  0  0  0  0  0
   40.0216  -21.1277   35.3348 O   0  0  0  0  0  0  0  0  0  0  0  0
   40.9262  -21.8498   36.0647 C   0  0  0  0  0  0  0  0  0  0  0  0
   40.9697  -23.2914   35.6302 C   0  0  0  0  0  0  0  0  0  0  0  0
   39.6003  -23.9061   35.8653 C   0  0  0  0  0  0  0  0  0  0  0  0
   39.2899  -23.8582   37.2711 N   0  0  0  0  0  0  0  0  0  0  0  0
   39.3577  -25.2229   37.8196 C   0  0  0  0  0  0  0  0  0  0  0  0
   38.1618  -25.8826   37.1673 C   0  0  0  0  0  0  0  0  0  0  0  0
   37.1933  -24.7253   36.9307 C   0  0  0  0  0  0  0  0  0  0  0  0
   37.8960  -23.5492   37.5359 C   0  0  0  0  0  0  0  0  0  0  0  0
 16 17  1  0  0  0
 17 11  1  0  0  0
 11 12  2  0  0  0
 12 13  1  0  0  0
 13 14  2  0  0  0
 14 15  1  0  0  0
 14  1  1  0  0  0
  1  2  2  0  0  0
  2  3  1  0  0  0
  3 18  1  0  0  0
 18 20  1  0  0  0
 20 21  1  0  0  0
 21 22  1  0  0  0
 22 23  1  0  0  0
 23 24  1  0  0  0
 24 25  1  0  0  0
 25 26  1  0  0  0
 26 27  1  0  0  0
 26 28  1  0  0  0
 28 29  1  0  0  0
  3  4  2  0  0  0
  4  5  1  0  0  0
  5  6  2  0  0  0
  6 30  1  0  0  0
 30 31  1  0  0  0
  6  7  1  0  0  0
  7 32  1  0  0  0
 32 33  1  0  0  0
 33 34  1  0  0  0
 34 35  1  0  0  0
 35 36  1  0  0  0
 36 37  1  0  0  0
 37 38  1  0  0  0
 38 39  1  0  0  0
 39 40  1  0  0  0
  7  8  2  0  0  0
  8  9  1  0  0  0
  9 10  2  0  0  0
 15 11  1  0  0  0
 10  1  1  0  0  0
 23 20  1  0  0  0
 29 23  1  0  0  0
  9  4  1  0  0  0
 40 36  1  0  0  0
 18 19  1  0  0  0
M  END
> <minimizedAffinity>
-3.93246

> <CNNscore>
0.2452660203

> <CNNaffinity>
6.3177981377

> <CNN_VS>
1.5495412350

> <CNNaffinity_variance>
0.0313458703

$$$$
[H]c1c(-c2nc3c([H])c(OC([H])([H])C([H])([H])C([H])([H])N4C([H])([H])C([H])([H])C([H])([H])C4([H])[H])c(OC([H])([H])[H])c([H])c3c(N([H])C3([H])C([H])([H])C([H])([H])C34C([H])([H])C([H])([H])N(C([H])([H])[H])C([H])([H])C4([H])[H])c2[H])oc(C([H])([H])C([H])([H])[H])c1[H]


 40 45  0  0  0  0  0  0  0  0999 V2000
   35.5496  -16.2450   36.4694 C   0  0  0  0  0  0  0  0  0  0  0  0
   34.5062  -17.1339   36.4078 C   0  0  0  0  0  0  0  0  0  0  0  0
   34.8248  -18.4947   36.2949 C   0  0  0  0  0  0  0  0  0  0  0  0
   36.1327  -18.9234   36.2478 C   0  0  0  0  0  0  0  0  0  0  0  0
   36.5190  -20.2480   36.1357 C   0  0  0  0  0  0  0  0  0  0  0  0
   37.8481  -20.6304   36.0911 C   0  0  0  0  0  0  0  0  0  0  0  0
   38.8692  -19.6689   36.1595 C   0  0  0  0  0  0  0  0  0  0  0  0
   38.4501  -18.3703   36.2691 C   0  0  0  0  0  0  0  0  0  0  0  0
   37.1213  -17.9655   36.3156 C   0  0  0  0  0  0  0  0  0  0  0  0
   36.8267  -16.6418   36.4252 N   0  0  0  0  0  0  0  0  0  0  0  0
   34.2621  -12.9688   37.1919 C   0  0  0  0  0  0  0  0  0  0  0  0
   35.2504  -12.6384   36.2942 C   0  0  0  0  0  0  0  0  0  0  0  0
   35.8679  -13.8157   35.9002 C   0  0  0  0  0  0  0  0  0  0  0  0
   35.2149  -14.8146   36.5875 C   0  0  0  0  0  0  0  0  0  0  0  0
   34.2874  -14.2680   37.3266 O   0  0  0  0  0  0  0  0  0  0  0  0
   31.9466  -12.1359   37.3796 C   0  0  0  0  0  0  0  0  0  0  0  0
   33.3721  -11.9761   37.8447 C   0  0  0  0  0  0  0  0  0  0  0  0
   33.7824  -19.4580   36.2421 N   0  0  0  0  0  0  0  0  0  0  0  0
   33.8443  -20.3552   36.7459 H   0  0  0  0  0  0  0  0  0  0  0  0
   32.5484  -19.2628   35.4863 C   0  0  0  0  0  0  0  0  0  0  0  0
   32.7368  -19.4560   33.9903 C   0  0  0  0  0  0  0  0  0  0  0  0
   32.4384  -20.9425   34.2339 C   0  0  0  0  0  0  0  0  0  0  0  0
   31.6455  -20.4761   35.4521 C   0  0  0  0  0  0  0  0  0  0  0  0
   31.7528  -21.3734   36.6538 C   0  0  0  0  0  0  0  0  0  0  0  0
   30.6458  -22.3744   36.7337 C   0  0  0  0  0  0  0  0  0  0  0  0
   29.3300  -21.8154   36.6203 N   0  0  0  0  0  0  0  0  0  0  0  0
   28.6499  -22.5027   35.5255 C   0  0  0  0  0  0  0  0  0  0  0  0
   29.3464  -20.4088   36.2706 C   0  0  0  0  0  0  0  0  0  0  0  0
   30.2308  -20.1403   35.0735 C   0  0  0  0  0  0  0  0  0  0  0  0
   38.1750  -21.9697   35.9784 O   0  0  0  0  0  0  0  0  0  0  0  0
   38.0692  -22.7919   37.1183 C   0  0  0  0  0  0  0  0  0  0  0  0
   40.1369  -20.1256   36.1123 O   0  0  0  0  0  0  0  0  0  0  0  0
   41.0687  -20.2672   35.1202 C   0  0  0  0  0  0  0  0  0  0  0  0
   41.2719  -18.9836   34.3586 C   0  0  0  0  0  0  0  0  0  0  0  0
   42.0733  -18.0301   35.2285 C   0  0  0  0  0  0  0  0  0  0  0  0
   43.4519  -18.4469   35.2504 N   0  0  0  0  0  0  0  0  0  0  0  0
   44.0200  -18.1413   36.5738 C   0  0  0  0  0  0  0  0  0  0  0  0
   44.0590  -16.6283   36.5561 C   0  0  0  0  0  0  0  0  0  0  0  0
   44.2029  -16.2864   35.0744 C   0  0  0  0  0  0  0  0  0  0  0  0
   44.3081  -17.6260   34.4128 C   0  0  0  0  0  0  0  0  0  0  0  0
 16 17  1  0  0  0
 17 11  1  0  0  0
 11 12  2  0  0  0
 12 13  1  0  0  0
 13 14  2  0  0  0
 14 15  1  0  0  0
 14  1  1  0  0  0
  1  2  2  0  0  0
  2  3  1  0  0  0
  3 18  1  0  0  0
 18 20  1  0  0  0
 20 21  1  0  0  0
 21 22  1  0  0  0
 22 23  1  0  0  0
 23 24  1  0  0  0
 24 25  1  0  0  0
 25 26  1  0  0  0
 26 27  1  0  0  0
 26 28  1  0  0  0
 28 29  1  0  0  0
  3  4  2  0  0  0
  4  5  1  0  0  0
  5  6  2  0  0  0
  6 30  1  0  0  0
 30 31  1  0  0  0
  6  7  1  0  0  0
  7 32  1  0  0  0
 32 33  1  0  0  0
 33 34  1  0  0  0
 34 35  1  0  0  0
 35 36  1  0  0  0
 36 37  1  0  0  0
 37 38  1  0  0  0
 38 39  1  0  0  0
 39 40  1  0  0  0
  7  8  2  0  0  0
  8  9  1  0  0  0
  9 10  2  0  0  0
 15 11  1  0  0  0
 10  1  1  0  0  0
 23 20  1  0  0  0
 29 23  1  0  0  0
  9  4  1  0  0  0
 40 36  1  0  0  0
 18 19  1  0  0  0
M  END
> <minimizedAffinity>
-7.13610

> <CNNscore>
0.2210832238

> <CNNaffinity>
6.5709700584

> <CNN_VS>
1.4527312517

> <CNNaffinity_variance>
0.1783452481

$$$$
[H]c1c2c(c([H])c(OC([H])([H])[H])c1OC([H])([H])C1([H])N(C([H])([H])[H])C([H])([H])C([H])([H])C1([H])[H])C1(C(N([H])[H])=N2)C([H])([H])C([H])([H])C1([H])[H]


 25 28  0  0  0  0  0  0  0  0999 V2000
   35.8146  -18.1137   35.2520 C   0  0  0  0  0  0  0  0  0  0  0  0
   36.3624  -17.0114   35.8767 C   0  0  0  0  0  0  0  0  0  0  0  0
   35.5470  -15.9274   36.2041 C   0  0  0  0  0  0  0  0  0  0  0  0
   34.2004  -15.9139   35.9251 C   0  0  0  0  0  0  0  0  0  0  0  0
   33.6704  -17.0356   35.2953 C   0  0  0  0  0  0  0  0  0  0  0  0
   34.4686  -18.1202   34.9640 C   0  0  0  0  0  0  0  0  0  0  0  0
   33.6622  -14.6820   36.3795 N   0  0  0  0  0  0  0  0  0  0  0  0
   34.5704  -13.9371   36.9156 C   0  0  0  0  0  0  0  0  0  0  0  0
   34.4040  -12.6352   37.4810 N   0  0  0  0  0  0  0  0  0  0  0  0
   35.8465  -14.6446   36.8594 C   0  0  0  0  0  0  0  0  0  0  0  0
   36.5839  -14.7555   38.1776 C   0  0  0  0  0  0  0  0  0  0  0  0
   37.5177  -13.6651   37.6790 C   0  0  0  0  0  0  0  0  0  0  0  0
   37.0029  -13.8757   36.2611 C   0  0  0  0  0  0  0  0  0  0  0  0
   33.5927  -12.4084   38.0681 H   0  0  0  0  0  0  0  0  0  0  0  0
   35.1220  -11.9228   37.2852 H   0  0  0  0  0  0  0  0  0  0  0  0
   37.6328  -19.0807   33.9875 C   0  0  0  0  0  0  0  0  0  0  0  0
   36.5491  -19.2334   34.8910 O   0  0  0  0  0  0  0  0  0  0  0  0
   33.9172  -19.2030   34.3475 O   0  0  0  0  0  0  0  0  0  0  0  0
   32.5675  -19.4034   34.0653 C   0  0  0  0  0  0  0  0  0  0  0  0
   31.9213  -20.0275   35.2634 C   0  0  0  0  0  0  0  0  0  0  0  0
   30.4176  -20.1201   35.1496 C   0  0  0  0  0  0  0  0  0  0  0  0
   30.1065  -21.1605   36.2257 C   0  0  0  0  0  0  0  0  0  0  0  0
   31.4453  -21.7318   36.6436 C   0  0  0  0  0  0  0  0  0  0  0  0
   32.3043  -21.3820   35.5001 N   0  0  0  0  0  0  0  0  0  0  0  0
   31.9642  -22.2908   34.4416 C   0  0  0  0  0  0  0  0  0  0  0  0
 16 17  1  0  0  0
 17  1  1  0  0  0
  1  2  2  0  0  0
  2  3  1  0  0  0
  3  4  2  0  0  0
  4  5  1  0  0  0
  5  6  2  0  0  0
  6 18  1  0  0  0
 18 19  1  0  0  0
 19 20  1  0  0  0
 20 21  1  0  0  0
 21 22  1  0  0  0
 22 23  1  0  0  0
 23 24  1  0  0  0
 24 25  1  0  0  0
  4  7  1  0  0  0
  7  8  2  0  0  0
  8  9  1  0  0  0
  8 10  1  0  0  0
 10 11  1  0  0  0
 11 12  1  0  0  0
 12 13  1  0  0  0
  6  1  1  0  0  0
 24 20  1  0  0  0
 13 10  1  0  0  0
 10  3  1  0  0  0
  9 14  1  0  0  0
  9 15  1  0  0  0
M  END
> <minimizedAffinity>
-6.97785

> <CNNscore>
0.6434940100

> <CNNaffinity>
5.2563352585

> <CNN_VS>
3.3824203014

> <CNNaffinity_variance>
0.2087132484

$$$$
[H]c1c2c(c([H])c(OC([H])([H])[H])c1OC([H])([H])C1([H])N(C([H])([H])[H])C([H])([H])C([H])([H])C1([H])[H])C1(C(N([H])[H])=N2)C([H])([H])C([H])([H])C1([H])[H]


 25 28  0  0  0  0  0  0  0  0999 V2000
   36.2725  -15.0149   37.3284 C   0  0  0  0  0  0  0  0  0  0  0  0
   36.7447  -16.2044   36.8113 C   0  0  0  0  0  0  0  0  0  0  0  0
   35.9207  -16.9757   35.9907 C   0  0  0  0  0  0  0  0  0  0  0  0
   34.6389  -16.5920   35.6726 C   0  0  0  0  0  0  0  0  0  0  0  0
   34.1845  -15.3897   36.2053 C   0  0  0  0  0  0  0  0  0  0  0  0
   34.9922  -14.6128   37.0221 C   0  0  0  0  0  0  0  0  0  0  0  0
   34.0720  -17.5829   34.8296 N   0  0  0  0  0  0  0  0  0  0  0  0
   34.9030  -18.5450   34.6041 C   0  0  0  0  0  0  0  0  0  0  0  0
   34.6868  -19.7105   33.8060 N   0  0  0  0  0  0  0  0  0  0  0  0
   36.1486  -18.2605   35.3110 C   0  0  0  0  0  0  0  0  0  0  0  0
   37.4026  -18.3236   34.4642 C   0  0  0  0  0  0  0  0  0  0  0  0
   37.7012  -19.6655   35.1121 C   0  0  0  0  0  0  0  0  0  0  0  0
   36.6739  -19.3679   36.1965 C   0  0  0  0  0  0  0  0  0  0  0  0
   34.2001  -19.6562   32.9034 H   0  0  0  0  0  0  0  0  0  0  0  0
   35.0329  -20.6145   34.1586 H   0  0  0  0  0  0  0  0  0  0  0  0
   38.1033  -13.4594   37.5907 C   0  0  0  0  0  0  0  0  0  0  0  0
   37.0211  -14.1865   38.1512 O   0  0  0  0  0  0  0  0  0  0  0  0
   34.5158  -13.4404   37.5272 O   0  0  0  0  0  0  0  0  0  0  0  0
   33.6476  -12.5526   36.8949 C   0  0  0  0  0  0  0  0  0  0  0  0
   32.2743  -12.7525   37.4574 C   0  0  0  0  0  0  0  0  0  0  0  0
   32.2474  -12.7859   38.9676 C   0  0  0  0  0  0  0  0  0  0  0  0
   30.7641  -12.5343   39.2392 C   0  0  0  0  0  0  0  0  0  0  0  0
   30.1658  -12.1301   37.9081 C   0  0  0  0  0  0  0  0  0  0  0  0
   31.3536  -11.7066   37.1480 N   0  0  0  0  0  0  0  0  0  0  0  0
   31.7247  -10.4162   37.6573 C   0  0  0  0  0  0  0  0  0  0  0  0
 16 17  1  0  0  0
 17  1  1  0  0  0
  1  2  2  0  0  0
  2  3  1  0  0  0
  3  4  2  0  0  0
  4  5  1  0  0  0
  5  6  2  0  0  0
  6 18  1  0  0  0
 18 19  1  0  0  0
 19 20  1  0  0  0
 20 21  1  0  0  0
 21 22  1  0  0  0
 22 23  1  0  0  0
 23 24  1  0  0  0
 24 25  1  0  0  0
  4  7  1  0  0  0
  7  8  2  0  0  0
  8  9  1  0  0  0
  8 10  1  0  0  0
 10 11  1  0  0  0
 11 12  1  0  0  0
 12 13  1  0  0  0
  6  1  1  0  0  0
 24 20  1  0  0  0
 13 10  1  0  0  0
 10  3  1  0  0  0
  9 14  1  0  0  0
  9 15  1  0  0  0
M  END
> <minimizedAffinity>
-7.50371

> <CNNscore>
0.6135039926

> <CNNaffinity>
5.8642716408

> <CNN_VS>
3.5977540016

> <CNNaffinity_variance>
0.1682837605

$$$$
[H]c1c2c(c([H])c(OC([H])([H])[H])c1OC([H])([H])C1([H])N(C([H])([H])[H])C([H])([H])C([H])([H])C1([H])[H])C1(C(N([H])[H])=N2)C([H])([H])C([H])([H])C1([H])[H]


 25 28  0  0  0  0  0  0  0  0999 V2000
   35.7343  -19.1485   36.3732 C   0  0  0  0  0  0  0  0  0  0  0  0
   37.0647  -19.5127   36.3188 C   0  0  0  0  0  0  0  0  0  0  0  0
   37.8524  -19.0917   35.2467 C   0  0  0  0  0  0  0  0  0  0  0  0
   37.3484  -18.3173   34.2281 C   0  0  0  0  0  0  0  0  0  0  0  0
   36.0052  -17.9625   34.3039 C   0  0  0  0  0  0  0  0  0  0  0  0
   35.2104  -18.3736   35.3634 C   0  0  0  0  0  0  0  0  0  0  0  0
   38.3929  -18.0623   33.3019 N   0  0  0  0  0  0  0  0  0  0  0  0
   39.4987  -18.6180   33.6699 C   0  0  0  0  0  0  0  0  0  0  0  0
   40.7572  -18.5802   32.9938 N   0  0  0  0  0  0  0  0  0  0  0  0
   39.2705  -19.3210   34.9293 C   0  0  0  0  0  0  0  0  0  0  0  0
   40.2391  -18.9838   36.0437 C   0  0  0  0  0  0  0  0  0  0  0  0
   40.9170  -20.3177   35.7778 C   0  0  0  0  0  0  0  0  0  0  0  0
   39.7084  -20.7678   34.9674 C   0  0  0  0  0  0  0  0  0  0  0  0
   41.1059  -17.7152   32.5641 H   0  0  0  0  0  0  0  0  0  0  0  0
   41.3120  -19.4469   32.9466 H   0  0  0  0  0  0  0  0  0  0  0  0
   35.4309  -20.0683   38.5872 C   0  0  0  0  0  0  0  0  0  0  0  0
   34.8793  -19.5215   37.3995 O   0  0  0  0  0  0  0  0  0  0  0  0
   33.8984  -18.0083   35.4068 O   0  0  0  0  0  0  0  0  0  0  0  0
   32.8834  -18.4453   34.5580 C   0  0  0  0  0  0  0  0  0  0  0  0
   31.8915  -19.2219   35.3676 C   0  0  0  0  0  0  0  0  0  0  0  0
   30.5278  -19.3028   34.7223 C   0  0  0  0  0  0  0  0  0  0  0  0
   29.9121  -20.4755   35.4859 C   0  0  0  0  0  0  0  0  0  0  0  0
   31.0476  -21.0928   36.2751 C   0  0  0  0  0  0  0  0  0  0  0  0
   32.2330  -20.5947   35.5578 N   0  0  0  0  0  0  0  0  0  0  0  0
   32.3269  -21.3587   34.3456 C   0  0  0  0  0  0  0  0  0  0  0  0
 16 17  1  0  0  0
 17  1  1  0  0  0
  1  2  2  0  0  0
  2  3  1  0  0  0
  3  4  2  0  0  0
  4  5  1  0  0  0
  5  6  2  0  0  0
  6 18  1  0  0  0
 18 19  1  0  0  0
 19 20  1  0  0  0
 20 21  1  0  0  0
 21 22  1  0  0  0
 22 23  1  0  0  0
 23 24  1  0  0  0
 24 25  1  0  0  0
  4  7  1  0  0  0
  7  8  2  0  0  0
  8  9  1  0  0  0
  8 10  1  0  0  0
 10 11  1  0  0  0
 11 12  1  0  0  0
 12 13  1  0  0  0
  6  1  1  0  0  0
 24 20  1  0  0  0
 13 10  1  0  0  0
 10  3  1  0  0  0
  9 14  1  0  0  0
  9 15  1  0  0  0
M  END
> <minimizedAffinity>
-5.94766

> <CNNscore>
0.5617795587

> <CNNaffinity>
4.8654122353

> <CNN_VS>
2.7332892418

> <CNNaffinity_variance>
0.4537633061

$$$$
[H]c1c2c(c([H])c(OC([H])([H])[H])c1OC([H])([H])C1([H])N(C([H])([H])[H])C([H])([H])C([H])([H])C1([H])[H])C1(C(N([H])[H])=N2)C([H])([H])C([H])([H])C1([H])[H]


 25 28  0  0  0  0  0  0  0  0999 V2000
   35.5015  -21.4570   37.5846 C   0  0  0  0  0  0  0  0  0  0  0  0
   34.5071  -21.1449   36.6796 C   0  0  0  0  0  0  0  0  0  0  0  0
   34.3445  -19.8236   36.2612 C   0  0  0  0  0  0  0  0  0  0  0  0
   35.1471  -18.8062   36.7215 C   0  0  0  0  0  0  0  0  0  0  0  0
   36.1424  -19.1443   37.6330 C   0  0  0  0  0  0  0  0  0  0  0  0
   36.3157  -20.4531   38.0577 C   0  0  0  0  0  0  0  0  0  0  0  0
   34.7284  -17.5955   36.1108 N   0  0  0  0  0  0  0  0  0  0  0  0
   33.7326  -17.7876   35.3117 C   0  0  0  0  0  0  0  0  0  0  0  0
   33.0479  -16.8097   34.5262 N   0  0  0  0  0  0  0  0  0  0  0  0
   33.3909  -19.2072   35.3257 C   0  0  0  0  0  0  0  0  0  0  0  0
   33.3109  -19.8673   33.9649 C   0  0  0  0  0  0  0  0  0  0  0  0
   31.7976  -19.8174   34.0955 C   0  0  0  0  0  0  0  0  0  0  0  0
   31.9378  -19.5348   35.5856 C   0  0  0  0  0  0  0  0  0  0  0  0
   33.5599  -16.0722   34.0278 H   0  0  0  0  0  0  0  0  0  0  0  0
   32.0205  -16.8610   34.4701 H   0  0  0  0  0  0  0  0  0  0  0  0
   35.1828  -23.8407   37.3468 C   0  0  0  0  0  0  0  0  0  0  0  0
   35.7343  -22.7411   38.0543 O   0  0  0  0  0  0  0  0  0  0  0  0
   37.3004  -20.7498   38.9515 O   0  0  0  0  0  0  0  0  0  0  0  0
   38.6370  -21.0156   38.6608 C   0  0  0  0  0  0  0  0  0  0  0  0
   38.9012  -20.6151   37.2423 C   0  0  0  0  0  0  0  0  0  0  0  0
   39.9215  -19.5081   37.1152 C   0  0  0  0  0  0  0  0  0  0  0  0
   40.3124  -19.6382   35.6430 C   0  0  0  0  0  0  0  0  0  0  0  0
   39.6928  -20.9354   35.1669 C   0  0  0  0  0  0  0  0  0  0  0  0
   39.4562  -21.6508   36.4318 N   0  0  0  0  0  0  0  0  0  0  0  0
   40.7351  -22.1321   36.8734 C   0  0  0  0  0  0  0  0  0  0  0  0
 16 17  1  0  0  0
 17  1  1  0  0  0
  1  2  2  0  0  0
  2  3  1  0  0  0
  3  4  2  0  0  0
  4  5  1  0  0  0
  5  6  2  0  0  0
  6 18  1  0  0  0
 18 19  1  0  0  0
 19 20  1  0  0  0
 20 21  1  0  0  0
 21 22  1  0  0  0
 22 23  1  0  0  0
 23 24  1  0  0  0
 24 25  1  0  0  0
  4  7  1  0  0  0
  7  8  2  0  0  0
  8  9  1  0  0  0
  8 10  1  0  0  0
 10 11  1  0  0  0
 11 12  1  0  0  0
 12 13  1  0  0  0
  6  1  1  0  0  0
 24 20  1  0  0  0
 13 10  1  0  0  0
 10  3  1  0  0  0
  9 14  1  0  0  0
  9 15  1  0  0  0
M  END
> <minimizedAffinity>
-4.50367

> <CNNscore>
0.4931415915

> <CNNaffinity>
4.6659107208

> <CNN_VS>
2.3009545803

> <CNNaffinity_variance>
0.2228940725

$$$$
[H]c1c2c(c([H])c(OC([H])([H])[H])c1OC([H])([H])C1([H])N(C([H])([H])[H])C([H])([H])C([H])([H])C1([H])[H])C1(C(N([H])[H])=N2)C([H])([H])C([H])([H])C1([H])[H]


 25 28  0  0  0  0  0  0  0  0999 V2000
   36.5549  -17.6345   36.5539 C   0  0  0  0  0  0  0  0  0  0  0  0
   37.8233  -18.1787   36.5781 C   0  0  0  0  0  0  0  0  0  0  0  0
   38.2525  -18.9765   35.5168 C   0  0  0  0  0  0  0  0  0  0  0  0
   37.4504  -19.2458   34.4326 C   0  0  0  0  0  0  0  0  0  0  0  0
   36.1763  -18.6868   34.4299 C   0  0  0  0  0  0  0  0  0  0  0  0
   35.7363  -17.8919   35.4777 C   0  0  0  0  0  0  0  0  0  0  0  0
   38.1729  -20.0771   33.5377 N   0  0  0  0  0  0  0  0  0  0  0  0
   39.3550  -20.3404   33.9852 C   0  0  0  0  0  0  0  0  0  0  0  0
   40.3616  -21.1408   33.3621 N   0  0  0  0  0  0  0  0  0  0  0  0
   39.5243  -19.6752   35.2741 C   0  0  0  0  0  0  0  0  0  0  0  0
   40.7630  -18.8130   35.4000 C   0  0  0  0  0  0  0  0  0  0  0  0
   41.3770  -19.9215   36.2391 C   0  0  0  0  0  0  0  0  0  0  0  0
   40.0004  -20.5500   36.4119 C   0  0  0  0  0  0  0  0  0  0  0  0
   40.5429  -21.0795   32.3532 H   0  0  0  0  0  0  0  0  0  0  0  0
   40.9063  -21.7863   33.9520 H   0  0  0  0  0  0  0  0  0  0  0  0
   36.5744  -15.5249   37.7325 C   0  0  0  0  0  0  0  0  0  0  0  0
   36.0465  -16.8314   37.5638 O   0  0  0  0  0  0  0  0  0  0  0  0
   34.4823  -17.3601   35.4433 O   0  0  0  0  0  0  0  0  0  0  0  0
   33.4223  -17.7769   34.6406 C   0  0  0  0  0  0  0  0  0  0  0  0
   32.5950  -18.7528   35.4187 C   0  0  0  0  0  0  0  0  0  0  0  0
   31.1543  -18.8071   34.9667 C   0  0  0  0  0  0  0  0  0  0  0  0
   30.7078  -20.1378   35.5727 C   0  0  0  0  0  0  0  0  0  0  0  0
   31.9726  -20.8101   36.0642 C   0  0  0  0  0  0  0  0  0  0  0  0
   33.0161  -20.1111   35.2959 N   0  0  0  0  0  0  0  0  0  0  0  0
   32.9581  -20.6342   33.9598 C   0  0  0  0  0  0  0  0  0  0  0  0
 16 17  1  0  0  0
 17  1  1  0  0  0
  1  2  2  0  0  0
  2  3  1  0  0  0
  3  4  2  0  0  0
  4  5  1  0  0  0
  5  6  2  0  0  0
  6 18  1  0  0  0
 18 19  1  0  0  0
 19 20  1  0  0  0
 20 21  1  0  0  0
 21 22  1  0  0  0
 22 23  1  0  0  0
 23 24  1  0  0  0
 24 25  1  0  0  0
  4  7  1  0  0  0
  7  8  2  0  0  0
  8  9  1  0  0  0
  8 10  1  0  0  0
 10 11  1  0  0  0
 11 12  1  0  0  0
 12 13  1  0  0  0
  6  1  1  0  0  0
 24 20  1  0  0  0
 13 10  1  0  0  0
 10  3  1  0  0  0
  9 14  1  0  0  0
  9 15  1  0  0  0
M  END
> <minimizedAffinity>
-5.78344

> <CNNscore>
0.4761375189

> <CNNaffinity>
4.7631454468

> <CNN_VS>
2.2679121494

> <CNNaffinity_variance>
0.2119141519

$$$$
[H]c1c2c(c([H])c(OC([H])([H])[H])c1OC([H])([H])C1([H])N(C([H])([H])[H])C([H])([H])C([H])([H])C1([H])[H])C1(C(N([H])[H])=N2)C([H])([H])C([H])([H])C1([H])[H]


 25 28  0  0  0  0  0  0  0  0999 V2000
   34.9728  -18.9966   35.5504 C   0  0  0  0  0  0  0  0  0  0  0  0
   34.2137  -20.1495   35.5595 C   0  0  0  0  0  0  0  0  0  0  0  0
   32.8215  -20.0597   35.5272 C   0  0  0  0  0  0  0  0  0  0  0  0
   32.1670  -18.8509   35.4861 C   0  0  0  0  0  0  0  0  0  0  0  0
   32.9524  -17.7025   35.4778 C   0  0  0  0  0  0  0  0  0  0  0  0
   34.3369  -17.7765   35.5095 C   0  0  0  0  0  0  0  0  0  0  0  0
   30.7701  -19.0998   35.4612 N   0  0  0  0  0  0  0  0  0  0  0  0
   30.5137  -20.3650   35.4836 C   0  0  0  0  0  0  0  0  0  0  0  0
   29.2295  -20.9916   35.4696 N   0  0  0  0  0  0  0  0  0  0  0  0
   31.7771  -21.0958   35.5273 C   0  0  0  0  0  0  0  0  0  0  0  0
   31.9405  -22.1702   34.4725 C   0  0  0  0  0  0  0  0  0  0  0  0
   31.6641  -23.1960   35.5593 C   0  0  0  0  0  0  0  0  0  0  0  0
   31.9041  -22.1314   36.6219 C   0  0  0  0  0  0  0  0  0  0  0  0
   28.4757  -20.6495   34.8619 H   0  0  0  0  0  0  0  0  0  0  0  0
   29.0747  -21.8011   36.0877 H   0  0  0  0  0  0  0  0  0  0  0  0
   37.0724  -19.2152   34.3740 C   0  0  0  0  0  0  0  0  0  0  0  0
   36.3593  -18.9921   35.5806 O   0  0  0  0  0  0  0  0  0  0  0  0
   35.0762  -16.6320   35.5003 O   0  0  0  0  0  0  0  0  0  0  0  0
   35.4690  -15.8850   36.6091 C   0  0  0  0  0  0  0  0  0  0  0  0
   35.0069  -14.4738   36.4165 C   0  0  0  0  0  0  0  0  0  0  0  0
   34.2865  -13.9125   37.6201 C   0  0  0  0  0  0  0  0  0  0  0  0
   34.3566  -12.4131   37.3298 C   0  0  0  0  0  0  0  0  0  0  0  0
   35.3124  -12.2648   36.1646 C   0  0  0  0  0  0  0  0  0  0  0  0
   36.0600  -13.5324   36.2112 N   0  0  0  0  0  0  0  0  0  0  0  0
   36.9822  -13.4219   37.3064 C   0  0  0  0  0  0  0  0  0  0  0  0
 16 17  1  0  0  0
 17  1  1  0  0  0
  1  2  2  0  0  0
  2  3  1  0  0  0
  3  4  2  0  0  0
  4  5  1  0  0  0
  5  6  2  0  0  0
  6 18  1  0  0  0
 18 19  1  0  0  0
 19 20  1  0  0  0
 20 21  1  0  0  0
 21 22  1  0  0  0
 22 23  1  0  0  0
 23 24  1  0  0  0
 24 25  1  0  0  0
  4  7  1  0  0  0
  7  8  2  0  0  0
  8  9  1  0  0  0
  8 10  1  0  0  0
 10 11  1  0  0  0
 11 12  1  0  0  0
 12 13  1  0  0  0
  6  1  1  0  0  0
 24 20  1  0  0  0
 13 10  1  0  0  0
 10  3  1  0  0  0
  9 14  1  0  0  0
  9 15  1  0  0  0
M  END
> <minimizedAffinity>
-6.34719

> <CNNscore>
0.4071997106

> <CNNaffinity>
5.0921454430

> <CNN_VS>
2.0735201836

> <CNNaffinity_variance>
0.1878362447

$$$$
[H]c1c2c(c([H])c(OC([H])([H])[H])c1OC([H])([H])C1([H])N(C([H])([H])[H])C([H])([H])C([H])([H])C1([H])[H])C1(C(N([H])[H])=N2)C([H])([H])C([H])([H])C1([H])[H]


 25 28  0  0  0  0  0  0  0  0999 V2000
   33.9302  -17.5519   35.9072 C   0  0  0  0  0  0  0  0  0  0  0  0
   34.0950  -16.1862   36.0212 C   0  0  0  0  0  0  0  0  0  0  0  0
   35.2734  -15.6762   36.5676 C   0  0  0  0  0  0  0  0  0  0  0  0
   36.2911  -16.4922   37.0031 C   0  0  0  0  0  0  0  0  0  0  0  0
   36.1029  -17.8650   36.8785 C   0  0  0  0  0  0  0  0  0  0  0  0
   34.9371  -18.3861   36.3374 C   0  0  0  0  0  0  0  0  0  0  0  0
   37.3387  -15.6736   37.4995 N   0  0  0  0  0  0  0  0  0  0  0  0
   37.0462  -14.4197   37.4039 C   0  0  0  0  0  0  0  0  0  0  0  0
   37.8512  -13.3072   37.7993 N   0  0  0  0  0  0  0  0  0  0  0  0
   35.7187  -14.2949   36.8085 C   0  0  0  0  0  0  0  0  0  0  0  0
   35.6312  -13.3751   35.6085 C   0  0  0  0  0  0  0  0  0  0  0  0
   34.9820  -12.3461   36.5192 C   0  0  0  0  0  0  0  0  0  0  0  0
   34.7351  -13.4283   37.5622 C   0  0  0  0  0  0  0  0  0  0  0  0
   38.8613  -13.2876   37.6153 H   0  0  0  0  0  0  0  0  0  0  0  0
   37.3924  -12.5182   38.2772 H   0  0  0  0  0  0  0  0  0  0  0  0
   32.7493  -18.4203   33.9860 C   0  0  0  0  0  0  0  0  0  0  0  0
   32.7939  -18.1449   35.3774 O   0  0  0  0  0  0  0  0  0  0  0  0
   34.7852  -19.7358   36.2298 O   0  0  0  0  0  0  0  0  0  0  0  0
   34.1618  -20.5797   37.1467 C   0  0  0  0  0  0  0  0  0  0  0  0
   35.1963  -21.0847   38.1043 C   0  0  0  0  0  0  0  0  0  0  0  0
   35.1455  -20.4028   39.4516 C   0  0  0  0  0  0  0  0  0  0  0  0
   35.9385  -21.3895   40.3088 C   0  0  0  0  0  0  0  0  0  0  0  0
   36.1241  -22.6227   39.4497 C   0  0  0  0  0  0  0  0  0  0  0  0
   35.0611  -22.4646   38.4433 N   0  0  0  0  0  0  0  0  0  0  0  0
   33.8273  -22.7992   39.0974 C   0  0  0  0  0  0  0  0  0  0  0  0
 16 17  1  0  0  0
 17  1  1  0  0  0
  1  2  2  0  0  0
  2  3  1  0  0  0
  3  4  2  0  0  0
  4  5  1  0  0  0
  5  6  2  0  0  0
  6 18  1  0  0  0
 18 19  1  0  0  0
 19 20  1  0  0  0
 20 21  1  0  0  0
 21 22  1  0  0  0
 22 23  1  0  0  0
 23 24  1  0  0  0
 24 25  1  0  0  0
  4  7  1  0  0  0
  7  8  2  0  0  0
  8  9  1  0  0  0
  8 10  1  0  0  0
 10 11  1  0  0  0
 11 12  1  0  0  0
 12 13  1  0  0  0
  6  1  1  0  0  0
 24 20  1  0  0  0
 13 10  1  0  0  0
 10  3  1  0  0  0
  9 14  1  0  0  0
  9 15  1  0  0  0
M  END
> <minimizedAffinity>
-5.78736

> <CNNscore>
0.3812972307

> <CNNaffinity>
4.6458401680

> <CNN_VS>
1.7714459896

> <CNNaffinity_variance>
0.5985592604

$$$$
[H]c1c2c(c([H])c(OC([H])([H])[H])c1OC([H])([H])C1([H])N(C([H])([H])[H])C([H])([H])C([H])([H])C1([H])[H])C1(C(N([H])[H])=N2)C([H])([H])C([H])([H])C1([H])[H]


 25 28  0  0  0  0  0  0  0  0999 V2000
   34.6770  -17.7378   35.8205 C   0  0  0  0  0  0  0  0  0  0  0  0
   34.5392  -16.3784   36.0168 C   0  0  0  0  0  0  0  0  0  0  0  0
   35.6063  -15.6442   36.5360 C   0  0  0  0  0  0  0  0  0  0  0  0
   36.8064  -16.2299   36.8643 C   0  0  0  0  0  0  0  0  0  0  0  0
   36.9224  -17.6010   36.6581 C   0  0  0  0  0  0  0  0  0  0  0  0
   35.8703  -18.3433   36.1428 C   0  0  0  0  0  0  0  0  0  0  0  0
   37.6742  -15.2227   37.3608 N   0  0  0  0  0  0  0  0  0  0  0  0
   37.1032  -14.0647   37.3637 C   0  0  0  0  0  0  0  0  0  0  0  0
   37.6628  -12.8212   37.7914 N   0  0  0  0  0  0  0  0  0  0  0  0
   35.7461  -14.2128   36.8457 C   0  0  0  0  0  0  0  0  0  0  0  0
   35.3783  -13.2740   35.7156 C   0  0  0  0  0  0  0  0  0  0  0  0
   34.5753  -12.4696   36.7244 C   0  0  0  0  0  0  0  0  0  0  0  0
   34.6440  -13.6338   37.7040 C   0  0  0  0  0  0  0  0  0  0  0  0
   38.6290  -12.5629   37.5585 H   0  0  0  0  0  0  0  0  0  0  0  0
   37.0708  -12.1838   38.3433 H   0  0  0  0  0  0  0  0  0  0  0  0
   33.0411  -18.1691   34.0948 C   0  0  0  0  0  0  0  0  0  0  0  0
   33.6705  -18.5441   35.3103 O   0  0  0  0  0  0  0  0  0  0  0  0
   36.0175  -19.6846   35.9534 O   0  0  0  0  0  0  0  0  0  0  0  0
   37.1165  -20.4614   36.3144 C   0  0  0  0  0  0  0  0  0  0  0  0
   38.2644  -20.1000   35.4232 C   0  0  0  0  0  0  0  0  0  0  0  0
   39.5610  -19.8995   36.1724 C   0  0  0  0  0  0  0  0  0  0  0  0
   40.5761  -20.0094   35.0345 C   0  0  0  0  0  0  0  0  0  0  0  0
   39.7973  -20.5115   33.8367 C   0  0  0  0  0  0  0  0  0  0  0  0
   38.6044  -21.1024   34.4657 N   0  0  0  0  0  0  0  0  0  0  0  0
   39.0210  -22.3532   35.0350 C   0  0  0  0  0  0  0  0  0  0  0  0
 16 17  1  0  0  0
 17  1  1  0  0  0
  1  2  2  0  0  0
  2  3  1  0  0  0
  3  4  2  0  0  0
  4  5  1  0  0  0
  5  6  2  0  0  0
  6 18  1  0  0  0
 18 19  1  0  0  0
 19 20  1  0  0  0
 20 21  1  0  0  0
 21 22  1  0  0  0
 22 23  1  0  0  0
 23 24  1  0  0  0
 24 25  1  0  0  0
  4  7  1  0  0  0
  7  8  2  0  0  0
  8  9  1  0  0  0
  8 10  1  0  0  0
 10 11  1  0  0  0
 11 12  1  0  0  0
 12 13  1  0  0  0
  6  1  1  0  0  0
 24 20  1  0  0  0
 13 10  1  0  0  0
 10  3  1  0  0  0
  9 14  1  0  0  0
  9 15  1  0  0  0
M  END
> <minimizedAffinity>
-5.67156

> <CNNscore>
0.3803969622

> <CNNaffinity>
4.9152541161

> <CNN_VS>
1.8697477579

> <CNNaffinity_variance>
0.4098823667

$$$$
[H]c1c2c(c([H])c(OC([H])([H])[H])c1OC([H])([H])C1([H])N(C([H])([H])[H])C([H])([H])C([H])([H])C1([H])[H])C1(C(N([H])[H])=N2)C([H])([H])C([H])([H])C1([H])[H]


 25 28  0  0  0  0  0  0  0  0999 V2000
   37.5971  -19.9717   35.8436 C   0  0  0  0  0  0  0  0  0  0  0  0
   36.2868  -19.7202   35.4894 C   0  0  0  0  0  0  0  0  0  0  0  0
   35.7497  -18.4480   35.6897 C   0  0  0  0  0  0  0  0  0  0  0  0
   36.4846  -17.4206   36.2336 C   0  0  0  0  0  0  0  0  0  0  0  0
   37.8026  -17.6973   36.5829 C   0  0  0  0  0  0  0  0  0  0  0  0
   38.3498  -18.9568   36.3896 C   0  0  0  0  0  0  0  0  0  0  0  0
   35.6586  -16.2688   36.3039 N   0  0  0  0  0  0  0  0  0  0  0  0
   34.4747  -16.5061   35.8466 C   0  0  0  0  0  0  0  0  0  0  0  0
   33.3786  -15.5935   35.7578 N   0  0  0  0  0  0  0  0  0  0  0  0
   34.4126  -17.8995   35.4145 C   0  0  0  0  0  0  0  0  0  0  0  0
   33.9087  -18.1179   34.0031 C   0  0  0  0  0  0  0  0  0  0  0  0
   32.5888  -18.5680   34.6073 C   0  0  0  0  0  0  0  0  0  0  0  0
   33.2624  -18.7119   35.9658 C   0  0  0  0  0  0  0  0  0  0  0  0
   33.5160  -14.6229   35.4520 H   0  0  0  0  0  0  0  0  0  0  0  0
   32.4391  -15.9333   36.0094 H   0  0  0  0  0  0  0  0  0  0  0  0
   38.7666  -21.5319   34.4160 C   0  0  0  0  0  0  0  0  0  0  0  0
   38.2117  -21.2042   35.6804 O   0  0  0  0  0  0  0  0  0  0  0  0
   39.6442  -19.1938   36.7429 O   0  0  0  0  0  0  0  0  0  0  0  0
   40.7736  -18.9952   35.9513 C   0  0  0  0  0  0  0  0  0  0  0  0
   41.8236  -18.3274   36.7843 C   0  0  0  0  0  0  0  0  0  0  0  0
   42.1660  -19.0946   38.0401 C   0  0  0  0  0  0  0  0  0  0  0  0
   43.5085  -18.4642   38.4109 C   0  0  0  0  0  0  0  0  0  0  0  0
   43.9078  -17.6183   37.2200 C   0  0  0  0  0  0  0  0  0  0  0  0
   43.0902  -18.1949   36.1397 N   0  0  0  0  0  0  0  0  0  0  0  0
   43.7089  -19.4400   35.7804 C   0  0  0  0  0  0  0  0  0  0  0  0
 16 17  1  0  0  0
 17  1  1  0  0  0
  1  2  2  0  0  0
  2  3  1  0  0  0
  3  4  2  0  0  0
  4  5  1  0  0  0
  5  6  2  0  0  0
  6 18  1  0  0  0
 18 19  1  0  0  0
 19 20  1  0  0  0
 20 21  1  0  0  0
 21 22  1  0  0  0
 22 23  1  0  0  0
 23 24  1  0  0  0
 24 25  1  0  0  0
  4  7  1  0  0  0
  7  8  2  0  0  0
  8  9  1  0  0  0
  8 10  1  0  0  0
 10 11  1  0  0  0
 11 12  1  0  0  0
 12 13  1  0  0  0
  6  1  1  0  0  0
 24 20  1  0  0  0
 13 10  1  0  0  0
 10  3  1  0  0  0
  9 14  1  0  0  0
  9 15  1  0  0  0
M  END
> <minimizedAffinity>
-5.25341

> <CNNscore>
0.3479901850

> <CNNaffinity>
4.6191978455

> <CNN_VS>
1.6074354649

> <CNNaffinity_variance>
0.2183412015

$$$$
[H]c1c(-c2nc3c([H])c(OC([H])([H])C([H])([H])C([H])([H])N4C([H])([H])C([H])([H])C([H])([H])C4([H])[H])c(OC([H])([H])[H])c([H])c3c(N([H])C3([H])C4([H])C([H])([H])N(C([H])([H])[H])C([H])([H])C3([H])C([H])([H])C4([H])[H])c2[H])oc(C([H])([H])[H])c1[H]


 38 43  0  0  0  0  0  0  0  0999 V2000
   36.1213  -14.1656   36.4241 C   0  0  0  0  0  0  0  0  0  0  0  0
   36.5291  -15.4585   36.2013 C   0  0  0  0  0  0  0  0  0  0  0  0
   35.6603  -16.4923   35.9508 C   0  0  0  0  0  0  0  0  0  0  0  0
   36.1038  -17.7801   35.7328 C   0  0  0  0  0  0  0  0  0  0  0  0
   35.1346  -18.7416   35.4933 C   0  0  0  0  0  0  0  0  0  0  0  0
   33.8031  -18.3963   35.4805 C   0  0  0  0  0  0  0  0  0  0  0  0
   33.4307  -17.1286   35.6984 N   0  0  0  0  0  0  0  0  0  0  0  0
   34.3217  -16.1562   35.9349 C   0  0  0  0  0  0  0  0  0  0  0  0
   33.8876  -14.8429   36.1604 C   0  0  0  0  0  0  0  0  0  0  0  0
   34.7515  -13.8261   36.4063 C   0  0  0  0  0  0  0  0  0  0  0  0
   32.7764  -19.4159   35.2296 C   0  0  0  0  0  0  0  0  0  0  0  0
   32.9221  -20.4959   34.3858 C   0  0  0  0  0  0  0  0  0  0  0  0
   31.7420  -21.2189   34.4201 C   0  0  0  0  0  0  0  0  0  0  0  0
   30.9336  -20.5251   35.2972 C   0  0  0  0  0  0  0  0  0  0  0  0
   29.5580  -20.9520   35.6355 C   0  0  0  0  0  0  0  0  0  0  0  0
   31.5840  -19.4740   35.7469 O   0  0  0  0  0  0  0  0  0  0  0  0
   38.1436  -13.4375   37.5498 C   0  0  0  0  0  0  0  0  0  0  0  0
   37.0688  -13.1569   36.6751 O   0  0  0  0  0  0  0  0  0  0  0  0
   37.4859  -18.1108   35.7293 N   0  0  0  0  0  0  0  0  0  0  0  0
   38.1886  -17.3701   35.7859 H   0  0  0  0  0  0  0  0  0  0  0  0
   37.9038  -19.4932   35.6411 C   0  0  0  0  0  0  0  0  0  0  0  0
   38.1291  -19.9254   34.2085 C   0  0  0  0  0  0  0  0  0  0  0  0
   38.8602  -21.2458   34.3991 C   0  0  0  0  0  0  0  0  0  0  0  0
   39.5609  -21.1503   35.7186 C   0  0  0  0  0  0  0  0  0  0  0  0
   39.3253  -19.7018   36.1726 C   0  0  0  0  0  0  0  0  0  0  0  0
   40.3263  -18.8010   35.5278 C   0  0  0  0  0  0  0  0  0  0  0  0
   40.1889  -18.5602   34.1474 N   0  0  0  0  0  0  0  0  0  0  0  0
   41.3748  -18.8288   33.3654 C   0  0  0  0  0  0  0  0  0  0  0  0
   38.9810  -18.9331   33.5101 C   0  0  0  0  0  0  0  0  0  0  0  0
   34.4563  -12.5126   36.6356 O   0  0  0  0  0  0  0  0  0  0  0  0
   33.9290  -11.9206   37.7604 C   0  0  0  0  0  0  0  0  0  0  0  0
   32.5536  -12.2709   38.1690 C   0  0  0  0  0  0  0  0  0  0  0  0
   31.4917  -12.1214   37.1542 C   0  0  0  0  0  0  0  0  0  0  0  0
   30.1430  -12.0075   37.6163 N   0  0  0  0  0  0  0  0  0  0  0  0
   29.9172  -10.5354   37.7233 C   0  0  0  0  0  0  0  0  0  0  0  0
   28.6022  -10.5453   38.4648 C   0  0  0  0  0  0  0  0  0  0  0  0
   28.8992  -11.4919   39.5911 C   0  0  0  0  0  0  0  0  0  0  0  0
   29.8741  -12.4774   38.9379 C   0  0  0  0  0  0  0  0  0  0  0  0
 17 18  1  0  0  0
 18  1  1  0  0  0
  1  2  2  0  0  0
  2  3  1  0  0  0
  3  4  2  0  0  0
  4 19  1  0  0  0
 19 21  1  0  0  0
 21 22  1  0  0  0
 22 23  1  0  0  0
 23 24  1  0  0  0
 24 25  1  0  0  0
 25 26  1  0  0  0
 26 27  1  0  0  0
 27 28  1  0  0  0
 27 29  1  0  0  0
  4  5  1  0  0  0
  5  6  2  0  0  0
  6  7  1  0  0  0
  7  8  2  0  0  0
  8  9  1  0  0  0
  9 10  2  0  0  0
 10 30  1  0  0  0
 30 31  1  0  0  0
 31 32  1  0  0  0
 32 33  1  0  0  0
 33 34  1  0  0  0
 34 35  1  0  0  0
 35 36  1  0  0  0
 36 37  1  0  0  0
 37 38  1  0  0  0
  6 11  1  0  0  0
 11 12  2  0  0  0
 12 13  1  0  0  0
 13 14  2  0  0  0
 14 15  1  0  0  0
 14 16  1  0  0  0
 10  1  1  0  0  0
 38 34  1  0  0  0
 16 11  1  0  0  0
  8  3  1  0  0  0
 25 21  1  0  0  0
 29 22  1  0  0  0
 19 20  1  0  0  0
M  END
> <minimizedAffinity>
-9.04957

> <CNNscore>
0.7642857432

> <CNNaffinity>
7.4883394241

> <CNN_VS>
5.7232308388

> <CNNaffinity_variance>
0.0770130157

$$$$
[H]c1c(-c2nc3c([H])c(OC([H])([H])C([H])([H])C([H])([H])N4C([H])([H])C([H])([H])C([H])([H])C4([H])[H])c(OC([H])([H])[H])c([H])c3c(N([H])C3([H])C4([H])C([H])([H])N(C([H])([H])[H])C([H])([H])C3([H])C([H])([H])C4([H])[H])c2[H])oc(C([H])([H])[H])c1[H]


 38 43  0  0  0  0  0  0  0  0999 V2000
   36.1322  -14.3406   36.4889 C   0  0  0  0  0  0  0  0  0  0  0  0
   36.5008  -15.6621   36.4148 C   0  0  0  0  0  0  0  0  0  0  0  0
   35.6153  -16.6802   36.1583 C   0  0  0  0  0  0  0  0  0  0  0  0
   36.0191  -17.9975   36.0924 C   0  0  0  0  0  0  0  0  0  0  0  0
   35.0362  -18.9390   35.8303 C   0  0  0  0  0  0  0  0  0  0  0  0
   33.7302  -18.5465   35.6498 C   0  0  0  0  0  0  0  0  0  0  0  0
   33.3962  -17.2518   35.7248 N   0  0  0  0  0  0  0  0  0  0  0  0
   34.3022  -16.2969   35.9747 C   0  0  0  0  0  0  0  0  0  0  0  0
   33.9082  -14.9540   36.0469 C   0  0  0  0  0  0  0  0  0  0  0  0
   34.7884  -13.9529   36.2998 C   0  0  0  0  0  0  0  0  0  0  0  0
   32.6885  -19.5447   35.3751 C   0  0  0  0  0  0  0  0  0  0  0  0
   32.8421  -20.6462   34.5611 C   0  0  0  0  0  0  0  0  0  0  0  0
   31.6428  -21.3378   34.5584 C   0  0  0  0  0  0  0  0  0  0  0  0
   30.8157  -20.6044   35.3843 C   0  0  0  0  0  0  0  0  0  0  0  0
   29.4158  -20.9882   35.6704 C   0  0  0  0  0  0  0  0  0  0  0  0
   31.4737  -19.5607   35.8404 O   0  0  0  0  0  0  0  0  0  0  0  0
   38.0448  -13.5851   37.7764 C   0  0  0  0  0  0  0  0  0  0  0  0
   37.0946  -13.3503   36.7562 O   0  0  0  0  0  0  0  0  0  0  0  0
   37.3777  -18.3787   36.2609 N   0  0  0  0  0  0  0  0  0  0  0  0
   37.9300  -17.9782   37.0227 H   0  0  0  0  0  0  0  0  0  0  0  0
   37.9853  -19.3292   35.3548 C   0  0  0  0  0  0  0  0  0  0  0  0
   39.4682  -19.0798   35.1849 C   0  0  0  0  0  0  0  0  0  0  0  0
   39.9157  -20.3590   34.4935 C   0  0  0  0  0  0  0  0  0  0  0  0
   38.9457  -21.4211   34.9082 C   0  0  0  0  0  0  0  0  0  0  0  0
   38.0541  -20.7368   35.9554 C   0  0  0  0  0  0  0  0  0  0  0  0
   38.7248  -20.7691   37.2889 C   0  0  0  0  0  0  0  0  0  0  0  0
   39.8490  -19.9410   37.4704 N   0  0  0  0  0  0  0  0  0  0  0  0
   41.0320  -20.6225   37.9457 C   0  0  0  0  0  0  0  0  0  0  0  0
   40.1104  -18.9315   36.5130 C   0  0  0  0  0  0  0  0  0  0  0  0
   34.5320  -12.6147   36.3905 O   0  0  0  0  0  0  0  0  0  0  0  0
   34.0889  -11.8824   37.4680 C   0  0  0  0  0  0  0  0  0  0  0  0
   32.7289  -12.1338   37.9867 C   0  0  0  0  0  0  0  0  0  0  0  0
   31.6227  -12.1184   37.0090 C   0  0  0  0  0  0  0  0  0  0  0  0
   30.2880  -12.0468   37.5178 N   0  0  0  0  0  0  0  0  0  0  0  0
   29.9968  -10.5834   37.5734 C   0  0  0  0  0  0  0  0  0  0  0  0
   28.7117  -10.6219   38.3648 C   0  0  0  0  0  0  0  0  0  0  0  0
   29.0943  -11.5053   39.5164 C   0  0  0  0  0  0  0  0  0  0  0  0
   30.0902  -12.4720   38.8667 C   0  0  0  0  0  0  0  0  0  0  0  0
 17 18  1  0  0  0
 18  1  1  0  0  0
  1  2  2  0  0  0
  2  3  1  0  0  0
  3  4  2  0  0  0
  4 19  1  0  0  0
 19 21  1  0  0  0
 21 22  1  0  0  0
 22 23  1  0  0  0
 23 24  1  0  0  0
 24 25  1  0  0  0
 25 26  1  0  0  0
 26 27  1  0  0  0
 27 28  1  0  0  0
 27 29  1  0  0  0
  4  5  1  0  0  0
  5  6  2  0  0  0
  6  7  1  0  0  0
  7  8  2  0  0  0
  8  9  1  0  0  0
  9 10  2  0  0  0
 10 30  1  0  0  0
 30 31  1  0  0  0
 31 32  1  0  0  0
 32 33  1  0  0  0
 33 34  1  0  0  0
 34 35  1  0  0  0
 35 36  1  0  0  0
 36 37  1  0  0  0
 37 38  1  0  0  0
  6 11  1  0  0  0
 11 12  2  0  0  0
 12 13  1  0  0  0
 13 14  2  0  0  0
 14 15  1  0  0  0
 14 16  1  0  0  0
 10  1  1  0  0  0
 38 34  1  0  0  0
 16 11  1  0  0  0
  8  3  1  0  0  0
 25 21  1  0  0  0
 29 22  1  0  0  0
 19 20  1  0  0  0
M  END
> <minimizedAffinity>
-8.65641

> <CNNscore>
0.6198654175

> <CNNaffinity>
7.2528328896

> <CNN_VS>
4.4957804680

> <CNNaffinity_variance>
0.0810096711

$$$$
[H]c1c(-c2nc3c([H])c(OC([H])([H])C([H])([H])C([H])([H])N4C([H])([H])C([H])([H])C([H])([H])C4([H])[H])c(OC([H])([H])[H])c([H])c3c(N([H])C3([H])C4([H])C([H])([H])N(C([H])([H])[H])C([H])([H])C3([H])C([H])([H])C4([H])[H])c2[H])oc(C([H])([H])[H])c1[H]


 38 43  0  0  0  0  0  0  0  0999 V2000
   37.9609  -19.6815   35.5825 C   0  0  0  0  0  0  0  0  0  0  0  0
   36.6898  -19.3260   35.2012 C   0  0  0  0  0  0  0  0  0  0  0  0
   36.1097  -18.1257   35.5319 C   0  0  0  0  0  0  0  0  0  0  0  0
   34.8297  -17.8010   35.1336 C   0  0  0  0  0  0  0  0  0  0  0  0
   34.3483  -16.5629   35.5293 C   0  0  0  0  0  0  0  0  0  0  0  0
   35.1338  -15.7217   36.2826 C   0  0  0  0  0  0  0  0  0  0  0  0
   36.3707  -16.0902   36.6401 N   0  0  0  0  0  0  0  0  0  0  0  0
   36.8900  -17.2738   36.2871 C   0  0  0  0  0  0  0  0  0  0  0  0
   38.1884  -17.6199   36.6851 C   0  0  0  0  0  0  0  0  0  0  0  0
   38.7557  -18.8071   36.3542 C   0  0  0  0  0  0  0  0  0  0  0  0
   34.6223  -14.4112   36.7042 C   0  0  0  0  0  0  0  0  0  0  0  0
   35.3244  -13.2271   36.6345 C   0  0  0  0  0  0  0  0  0  0  0  0
   34.5055  -12.2231   37.1225 C   0  0  0  0  0  0  0  0  0  0  0  0
   33.3338  -12.8655   37.4666 C   0  0  0  0  0  0  0  0  0  0  0  0
   32.1659  -12.1604   38.0391 C   0  0  0  0  0  0  0  0  0  0  0  0
   33.4497  -14.1489   37.2030 O   0  0  0  0  0  0  0  0  0  0  0  0
   38.2943  -22.0358   36.0656 C   0  0  0  0  0  0  0  0  0  0  0  0
   38.4903  -20.9295   35.2074 O   0  0  0  0  0  0  0  0  0  0  0  0
   34.0431  -18.6766   34.3372 N   0  0  0  0  0  0  0  0  0  0  0  0
   34.4976  -19.3308   33.6959 H   0  0  0  0  0  0  0  0  0  0  0  0
   32.5994  -18.6431   34.4265 C   0  0  0  0  0  0  0  0  0  0  0  0
   31.9588  -19.7765   33.6552 C   0  0  0  0  0  0  0  0  0  0  0  0
   30.5274  -19.7243   34.1678 C   0  0  0  0  0  0  0  0  0  0  0  0
   30.5953  -19.1323   35.5411 C   0  0  0  0  0  0  0  0  0  0  0  0
   32.0990  -19.0046   35.8285 C   0  0  0  0  0  0  0  0  0  0  0  0
   32.6324  -20.3102   36.3187 C   0  0  0  0  0  0  0  0  0  0  0  0
   32.7363  -21.3603   35.3865 N   0  0  0  0  0  0  0  0  0  0  0  0
   32.0841  -22.5880   35.7830 C   0  0  0  0  0  0  0  0  0  0  0  0
   32.6118  -21.0599   34.0087 C   0  0  0  0  0  0  0  0  0  0  0  0
   40.0045  -19.2574   36.6748 O   0  0  0  0  0  0  0  0  0  0  0  0
   41.2325  -18.7816   36.2758 C   0  0  0  0  0  0  0  0  0  0  0  0
   42.3269  -18.7215   37.2658 C   0  0  0  0  0  0  0  0  0  0  0  0
   42.8271  -20.0062   37.7943 C   0  0  0  0  0  0  0  0  0  0  0  0
   42.9216  -20.1484   39.2142 N   0  0  0  0  0  0  0  0  0  0  0  0
   41.5126  -20.3767   39.6526 C   0  0  0  0  0  0  0  0  0  0  0  0
   41.6967  -20.2337   41.1441 C   0  0  0  0  0  0  0  0  0  0  0  0
   42.4662  -18.9478   41.2301 C   0  0  0  0  0  0  0  0  0  0  0  0
   43.3108  -18.9892   39.9522 C   0  0  0  0  0  0  0  0  0  0  0  0
 17 18  1  0  0  0
 18  1  1  0  0  0
  1  2  2  0  0  0
  2  3  1  0  0  0
  3  4  2  0  0  0
  4 19  1  0  0  0
 19 21  1  0  0  0
 21 22  1  0  0  0
 22 23  1  0  0  0
 23 24  1  0  0  0
 24 25  1  0  0  0
 25 26  1  0  0  0
 26 27  1  0  0  0
 27 28  1  0  0  0
 27 29  1  0  0  0
  4  5  1  0  0  0
  5  6  2  0  0  0
  6  7  1  0  0  0
  7  8  2  0  0  0
  8  9  1  0  0  0
  9 10  2  0  0  0
 10 30  1  0  0  0
 30 31  1  0  0  0
 31 32  1  0  0  0
 32 33  1  0  0  0
 33 34  1  0  0  0
 34 35  1  0  0  0
 35 36  1  0  0  0
 36 37  1  0  0  0
 37 38  1  0  0  0
  6 11  1  0  0  0
 11 12  2  0  0  0
 12 13  1  0  0  0
 13 14  2  0  0  0
 14 15  1  0  0  0
 14 16  1  0  0  0
 10  1  1  0  0  0
 38 34  1  0  0  0
 16 11  1  0  0  0
  8  3  1  0  0  0
 25 21  1  0  0  0
 29 22  1  0  0  0
 19 20  1  0  0  0
M  END
> <minimizedAffinity>
-7.19542

> <CNNscore>
0.3473229408

> <CNNaffinity>
6.4110665321

> <CNN_VS>
2.2267105579

> <CNNaffinity_variance>
0.0753645748

$$$$
[H]c1c(-c2nc3c([H])c(OC([H])([H])C([H])([H])C([H])([H])N4C([H])([H])C([H])([H])C([H])([H])C4([H])[H])c(OC([H])([H])[H])c([H])c3c(N([H])C3([H])C4([H])C([H])([H])N(C([H])([H])[H])C([H])([H])C3([H])C([H])([H])C4([H])[H])c2[H])oc(C([H])([H])[H])c1[H]


 38 43  0  0  0  0  0  0  0  0999 V2000
   38.1195  -21.0022   36.2076 C   0  0  0  0  0  0  0  0  0  0  0  0
   36.8267  -20.5728   36.3861 C   0  0  0  0  0  0  0  0  0  0  0  0
   36.4810  -19.2498   36.5149 C   0  0  0  0  0  0  0  0  0  0  0  0
   35.1722  -18.8530   36.6946 C   0  0  0  0  0  0  0  0  0  0  0  0
   34.9442  -17.4911   36.8154 C   0  0  0  0  0  0  0  0  0  0  0  0
   35.9937  -16.6040   36.7550 C   0  0  0  0  0  0  0  0  0  0  0  0
   37.2450  -17.0472   36.5782 N   0  0  0  0  0  0  0  0  0  0  0  0
   37.5268  -18.3512   36.4547 C   0  0  0  0  0  0  0  0  0  0  0  0
   38.8515  -18.7712   36.2734 C   0  0  0  0  0  0  0  0  0  0  0  0
   39.1859  -20.0799   36.1460 C   0  0  0  0  0  0  0  0  0  0  0  0
   35.7520  -15.1614   36.8860 C   0  0  0  0  0  0  0  0  0  0  0  0
   36.6704  -14.1750   36.5975 C   0  0  0  0  0  0  0  0  0  0  0  0
   36.0683  -12.9536   36.8468 C   0  0  0  0  0  0  0  0  0  0  0  0
   34.7977  -13.2733   37.2798 C   0  0  0  0  0  0  0  0  0  0  0  0
   33.7959  -12.2540   37.6623 C   0  0  0  0  0  0  0  0  0  0  0  0
   34.6584  -14.5812   37.2862 O   0  0  0  0  0  0  0  0  0  0  0  0
   38.5484  -23.1463   37.2594 C   0  0  0  0  0  0  0  0  0  0  0  0
   38.3995  -22.3751   36.0838 O   0  0  0  0  0  0  0  0  0  0  0  0
   34.1004  -19.7854   36.7328 N   0  0  0  0  0  0  0  0  0  0  0  0
   33.5682  -19.9169   37.5960 H   0  0  0  0  0  0  0  0  0  0  0  0
   33.7614  -20.5542   35.5549 C   0  0  0  0  0  0  0  0  0  0  0  0
   32.5778  -21.4656   35.7959 C   0  0  0  0  0  0  0  0  0  0  0  0
   32.2218  -21.8855   34.3777 C   0  0  0  0  0  0  0  0  0  0  0  0
   32.6852  -20.7778   33.4837 C   0  0  0  0  0  0  0  0  0  0  0  0
   33.1605  -19.6812   34.4487 C   0  0  0  0  0  0  0  0  0  0  0  0
   31.9924  -18.8752   34.9126 C   0  0  0  0  0  0  0  0  0  0  0  0
   31.0908  -19.4909   35.8017 N   0  0  0  0  0  0  0  0  0  0  0  0
   29.7079  -19.4555   35.3821 C   0  0  0  0  0  0  0  0  0  0  0  0
   31.4734  -20.7027   36.4258 C   0  0  0  0  0  0  0  0  0  0  0  0
   40.4297  -20.6129   35.9620 O   0  0  0  0  0  0  0  0  0  0  0  0
   41.4051  -20.8925   36.8916 C   0  0  0  0  0  0  0  0  0  0  0  0
   42.2786  -19.7959   37.3563 C   0  0  0  0  0  0  0  0  0  0  0  0
   42.2806  -18.5534   36.5587 C   0  0  0  0  0  0  0  0  0  0  0  0
   43.5472  -17.9693   36.2429 N   0  0  0  0  0  0  0  0  0  0  0  0
   43.3457  -16.5094   36.4829 C   0  0  0  0  0  0  0  0  0  0  0  0
   44.6194  -15.9843   35.8654 C   0  0  0  0  0  0  0  0  0  0  0  0
   44.6203  -16.6838   34.5374 C   0  0  0  0  0  0  0  0  0  0  0  0
   43.9575  -18.0233   34.8760 C   0  0  0  0  0  0  0  0  0  0  0  0
 17 18  1  0  0  0
 18  1  1  0  0  0
  1  2  2  0  0  0
  2  3  1  0  0  0
  3  4  2  0  0  0
  4 19  1  0  0  0
 19 21  1  0  0  0
 21 22  1  0  0  0
 22 23  1  0  0  0
 23 24  1  0  0  0
 24 25  1  0  0  0
 25 26  1  0  0  0
 26 27  1  0  0  0
 27 28  1  0  0  0
 27 29  1  0  0  0
  4  5  1  0  0  0
  5  6  2  0  0  0
  6  7  1  0  0  0
  7  8  2  0  0  0
  8  9  1  0  0  0
  9 10  2  0  0  0
 10 30  1  0  0  0
 30 31  1  0  0  0
 31 32  1  0  0  0
 32 33  1  0  0  0
 33 34  1  0  0  0
 34 35  1  0  0  0
 35 36  1  0  0  0
 36 37  1  0  0  0
 37 38  1  0  0  0
  6 11  1  0  0  0
 11 12  2  0  0  0
 12 13  1  0  0  0
 13 14  2  0  0  0
 14 15  1  0  0  0
 14 16  1  0  0  0
 10  1  1  0  0  0
 38 34  1  0  0  0
 16 11  1  0  0  0
  8  3  1  0  0  0
 25 21  1  0  0  0
 29 22  1  0  0  0
 19 20  1  0  0  0
M  END
> <minimizedAffinity>
-6.57235

> <CNNscore>
0.3024186790

> <CNNaffinity>
6.5852813721

> <CNN_VS>
1.9915120602

> <CNNaffinity_variance>
0.0382730626

$$$$
[H]c1c(-c2nc3c([H])c(OC([H])([H])C([H])([H])C([H])([H])N4C([H])([H])C([H])([H])C([H])([H])C4([H])[H])c(OC([H])([H])[H])c([H])c3c(N([H])C3([H])C4([H])C([H])([H])N(C([H])([H])[H])C([H])([H])C3([H])C([H])([H])C4([H])[H])c2[H])oc(C([H])([H])[H])c1[H]


 38 43  0  0  0  0  0  0  0  0999 V2000
   32.5152  -20.6590   34.6385 C   0  0  0  0  0  0  0  0  0  0  0  0
   33.8141  -20.2250   34.7481 C   0  0  0  0  0  0  0  0  0  0  0  0
   34.1550  -18.9474   35.1195 C   0  0  0  0  0  0  0  0  0  0  0  0
   35.4704  -18.5439   35.2181 C   0  0  0  0  0  0  0  0  0  0  0  0
   35.6930  -17.2298   35.5987 C   0  0  0  0  0  0  0  0  0  0  0  0
   34.6321  -16.3936   35.8582 C   0  0  0  0  0  0  0  0  0  0  0  0
   33.3749  -16.8409   35.7464 N   0  0  0  0  0  0  0  0  0  0  0  0
   33.0977  -18.1003   35.3831 C   0  0  0  0  0  0  0  0  0  0  0  0
   31.7667  -18.5258   35.2762 C   0  0  0  0  0  0  0  0  0  0  0  0
   31.4369  -19.7897   34.9097 C   0  0  0  0  0  0  0  0  0  0  0  0
   34.8684  -15.0005   36.2585 C   0  0  0  0  0  0  0  0  0  0  0  0
   36.0935  -14.3691   36.2439 C   0  0  0  0  0  0  0  0  0  0  0  0
   35.9035  -13.0718   36.6884 C   0  0  0  0  0  0  0  0  0  0  0  0
   34.5517  -12.9882   36.9521 C   0  0  0  0  0  0  0  0  0  0  0  0
   33.9031  -11.7577   37.4561 C   0  0  0  0  0  0  0  0  0  0  0  0
   33.9856  -14.1450   36.6846 O   0  0  0  0  0  0  0  0  0  0  0  0
   32.2829  -22.9997   35.2336 C   0  0  0  0  0  0  0  0  0  0  0  0
   32.2407  -21.9832   34.2519 O   0  0  0  0  0  0  0  0  0  0  0  0
   36.5518  -19.4309   34.9660 N   0  0  0  0  0  0  0  0  0  0  0  0
   36.3658  -20.3972   34.6881 H   0  0  0  0  0  0  0  0  0  0  0  0
   37.9171  -18.9730   35.1058 C   0  0  0  0  0  0  0  0  0  0  0  0
   38.5253  -19.4022   36.4233 C   0  0  0  0  0  0  0  0  0  0  0  0
   39.9998  -19.1103   36.1886 C   0  0  0  0  0  0  0  0  0  0  0  0
   40.2164  -19.2080   34.7105 C   0  0  0  0  0  0  0  0  0  0  0  0
   38.8722  -19.7070   34.1593 C   0  0  0  0  0  0  0  0  0  0  0  0
   38.7931  -21.1924   34.2888 C   0  0  0  0  0  0  0  0  0  0  0  0
   38.6422  -21.7242   35.5837 N   0  0  0  0  0  0  0  0  0  0  0  0
   39.6247  -22.7206   35.9468 C   0  0  0  0  0  0  0  0  0  0  0  0
   38.2898  -20.8499   36.6400 C   0  0  0  0  0  0  0  0  0  0  0  0
   30.1874  -20.3240   34.7742 O   0  0  0  0  0  0  0  0  0  0  0  0
   29.3055  -20.7377   35.7461 C   0  0  0  0  0  0  0  0  0  0  0  0
   28.6907  -22.0751   35.6246 C   0  0  0  0  0  0  0  0  0  0  0  0
   28.1412  -22.6773   36.8556 C   0  0  0  0  0  0  0  0  0  0  0  0
   28.4349  -24.0537   37.1097 N   0  0  0  0  0  0  0  0  0  0  0  0
   29.7297  -24.0193   37.8525 C   0  0  0  0  0  0  0  0  0  0  0  0
   30.0682  -25.4902   37.8175 C   0  0  0  0  0  0  0  0  0  0  0  0
   29.8759  -25.8084   36.3633 C   0  0  0  0  0  0  0  0  0  0  0  0
   28.7296  -24.8686   35.9745 C   0  0  0  0  0  0  0  0  0  0  0  0
 17 18  1  0  0  0
 18  1  1  0  0  0
  1  2  2  0  0  0
  2  3  1  0  0  0
  3  4  2  0  0  0
  4 19  1  0  0  0
 19 21  1  0  0  0
 21 22  1  0  0  0
 22 23  1  0  0  0
 23 24  1  0  0  0
 24 25  1  0  0  0
 25 26  1  0  0  0
 26 27  1  0  0  0
 27 28  1  0  0  0
 27 29  1  0  0  0
  4  5  1  0  0  0
  5  6  2  0  0  0
  6  7  1  0  0  0
  7  8  2  0  0  0
  8  9  1  0  0  0
  9 10  2  0  0  0
 10 30  1  0  0  0
 30 31  1  0  0  0
 31 32  1  0  0  0
 32 33  1  0  0  0
 33 34  1  0  0  0
 34 35  1  0  0  0
 35 36  1  0  0  0
 36 37  1  0  0  0
 37 38  1  0  0  0
  6 11  1  0  0  0
 11 12  2  0  0  0
 12 13  1  0  0  0
 13 14  2  0  0  0
 14 15  1  0  0  0
 14 16  1  0  0  0
 10  1  1  0  0  0
 38 34  1  0  0  0
 16 11  1  0  0  0
  8  3  1  0  0  0
 25 21  1  0  0  0
 29 22  1  0  0  0
 19 20  1  0  0  0
M  END
> <minimizedAffinity>
-6.94227

> <CNNscore>
0.2993517816

> <CNNaffinity>
6.1906924248

> <CNN_VS>
1.8531948328

> <CNNaffinity_variance>
0.2814351916

$$$$
[H]c1c(-c2nc3c([H])c(OC([H])([H])C([H])([H])C([H])([H])N4C([H])([H])C([H])([H])C([H])([H])C4([H])[H])c(OC([H])([H])[H])c([H])c3c(N([H])C3([H])C4([H])C([H])([H])N(C([H])([H])[H])C([H])([H])C3([H])C([H])([H])C4([H])[H])c2[H])oc(C([H])([H])[H])c1[H]


 38 43  0  0  0  0  0  0  0  0999 V2000
   36.4612  -14.5771   36.5263 C   0  0  0  0  0  0  0  0  0  0  0  0
   37.0622  -15.8126   36.5222 C   0  0  0  0  0  0  0  0  0  0  0  0
   36.3684  -16.9897   36.3830 C   0  0  0  0  0  0  0  0  0  0  0  0
   37.0035  -18.2142   36.3847 C   0  0  0  0  0  0  0  0  0  0  0  0
   36.1997  -19.3341   36.2401 C   0  0  0  0  0  0  0  0  0  0  0  0
   34.8377  -19.1976   36.1038 C   0  0  0  0  0  0  0  0  0  0  0  0
   34.2757  -17.9821   36.1088 N   0  0  0  0  0  0  0  0  0  0  0  0
   35.0009  -16.8637   36.2446 C   0  0  0  0  0  0  0  0  0  0  0  0
   34.3710  -15.6118   36.2469 C   0  0  0  0  0  0  0  0  0  0  0  0
   35.0626  -14.4526   36.3839 C   0  0  0  0  0  0  0  0  0  0  0  0
   33.9861  -20.3846   35.9535 C   0  0  0  0  0  0  0  0  0  0  0  0
   33.8802  -21.4050   36.8739 C   0  0  0  0  0  0  0  0  0  0  0  0
   32.9843  -22.3333   36.3717 C   0  0  0  0  0  0  0  0  0  0  0  0
   32.5911  -21.8151   35.1548 C   0  0  0  0  0  0  0  0  0  0  0  0
   31.6241  -22.4937   34.2640 C   0  0  0  0  0  0  0  0  0  0  0  0
   33.2057  -20.6699   34.9525 O   0  0  0  0  0  0  0  0  0  0  0  0
   38.2540  -13.3945   37.6551 C   0  0  0  0  0  0  0  0  0  0  0  0
   37.2361  -13.4126   36.6741 O   0  0  0  0  0  0  0  0  0  0  0  0
   38.4146  -18.3312   36.5055 N   0  0  0  0  0  0  0  0  0  0  0  0
   38.9270  -17.7079   37.1337 H   0  0  0  0  0  0  0  0  0  0  0  0
   39.1312  -19.3271   35.7386 C   0  0  0  0  0  0  0  0  0  0  0  0
   40.5692  -18.9248   35.4933 C   0  0  0  0  0  0  0  0  0  0  0  0
   41.1703  -20.2296   34.9927 C   0  0  0  0  0  0  0  0  0  0  0  0
   40.3458  -21.3273   35.5896 C   0  0  0  0  0  0  0  0  0  0  0  0
   39.3822  -20.6058   36.5439 C   0  0  0  0  0  0  0  0  0  0  0  0
   40.0612  -20.3486   37.8486 C   0  0  0  0  0  0  0  0  0  0  0  0
   41.0727  -19.3694   37.8722 N   0  0  0  0  0  0  0  0  0  0  0  0
   42.3359  -19.8174   38.4139 C   0  0  0  0  0  0  0  0  0  0  0  0
   41.1971  -18.4949   36.7658 C   0  0  0  0  0  0  0  0  0  0  0  0
   34.5695  -13.1792   36.3975 O   0  0  0  0  0  0  0  0  0  0  0  0
   33.9370  -12.4995   37.4132 C   0  0  0  0  0  0  0  0  0  0  0  0
   32.5211  -12.8071   37.6996 C   0  0  0  0  0  0  0  0  0  0  0  0
   31.5246  -11.7749   37.3508 C   0  0  0  0  0  0  0  0  0  0  0  0
   30.1535  -12.0467   37.6534 N   0  0  0  0  0  0  0  0  0  0  0  0
   29.5097  -10.6996   37.6702 C   0  0  0  0  0  0  0  0  0  0  0  0
   28.1720  -11.0777   38.2593 C   0  0  0  0  0  0  0  0  0  0  0  0
   28.5873  -11.8890   39.4518 C   0  0  0  0  0  0  0  0  0  0  0  0
   29.8720  -12.5610   38.9556 C   0  0  0  0  0  0  0  0  0  0  0  0
 17 18  1  0  0  0
 18  1  1  0  0  0
  1  2  2  0  0  0
  2  3  1  0  0  0
  3  4  2  0  0  0
  4 19  1  0  0  0
 19 21  1  0  0  0
 21 22  1  0  0  0
 22 23  1  0  0  0
 23 24  1  0  0  0
 24 25  1  0  0  0
 25 26  1  0  0  0
 26 27  1  0  0  0
 27 28  1  0  0  0
 27 29  1  0  0  0
  4  5  1  0  0  0
  5  6  2  0  0  0
  6  7  1  0  0  0
  7  8  2  0  0  0
  8  9  1  0  0  0
  9 10  2  0  0  0
 10 30  1  0  0  0
 30 31  1  0  0  0
 31 32  1  0  0  0
 32 33  1  0  0  0
 33 34  1  0  0  0
 34 35  1  0  0  0
 35 36  1  0  0  0
 36 37  1  0  0  0
 37 38  1  0  0  0
  6 11  1  0  0  0
 11 12  2  0  0  0
 12 13  1  0  0  0
 13 14  2  0  0  0
 14 15  1  0  0  0
 14 16  1  0  0  0
 10  1  1  0  0  0
 38 34  1  0  0  0
 16 11  1  0  0  0
  8  3  1  0  0  0
 25 21  1  0  0  0
 29 22  1  0  0  0
 19 20  1  0  0  0
M  END
> <minimizedAffinity>
-7.88854

> <CNNscore>
0.2932045162

> <CNNaffinity>
6.5200757980

> <CNN_VS>
1.9117156267

> <CNNaffinity_variance>
0.1063084006

$$$$
[H]c1c(-c2nc3c([H])c(OC([H])([H])C([H])([H])C([H])([H])N4C([H])([H])C([H])([H])C([H])([H])C4([H])[H])c(OC([H])([H])[H])c([H])c3c(N([H])C3([H])C4([H])C([H])([H])N(C([H])([H])[H])C([H])([H])C3([H])C([H])([H])C4([H])[H])c2[H])oc(C([H])([H])[H])c1[H]


 38 43  0  0  0  0  0  0  0  0999 V2000
   40.2870  -21.1295   35.6032 C   0  0  0  0  0  0  0  0  0  0  0  0
   39.2701  -21.3712   36.4949 C   0  0  0  0  0  0  0  0  0  0  0  0
   38.0016  -20.8651   36.3495 C   0  0  0  0  0  0  0  0  0  0  0  0
   37.0037  -21.1264   37.2652 C   0  0  0  0  0  0  0  0  0  0  0  0
   35.7639  -20.5590   37.0158 C   0  0  0  0  0  0  0  0  0  0  0  0
   35.5703  -19.7777   35.9003 C   0  0  0  0  0  0  0  0  0  0  0  0
   36.5770  -19.5584   35.0448 N   0  0  0  0  0  0  0  0  0  0  0  0
   37.7966  -20.0803   35.2328 C   0  0  0  0  0  0  0  0  0  0  0  0
   38.8221  -19.8230   34.3130 C   0  0  0  0  0  0  0  0  0  0  0  0
   40.0729  -20.3270   34.4622 C   0  0  0  0  0  0  0  0  0  0  0  0
   34.2574  -19.1742   35.6380 C   0  0  0  0  0  0  0  0  0  0  0  0
   34.0369  -17.8381   35.3811 C   0  0  0  0  0  0  0  0  0  0  0  0
   32.6769  -17.6659   35.1872 C   0  0  0  0  0  0  0  0  0  0  0  0
   32.1405  -18.9280   35.3402 C   0  0  0  0  0  0  0  0  0  0  0  0
   30.6935  -19.2097   35.2143 C   0  0  0  0  0  0  0  0  0  0  0  0
   33.1068  -19.7805   35.6038 O   0  0  0  0  0  0  0  0  0  0  0  0
   41.6571  -23.0002   36.3176 C   0  0  0  0  0  0  0  0  0  0  0  0
   41.5631  -21.6813   35.8170 O   0  0  0  0  0  0  0  0  0  0  0  0
   37.2198  -21.9542   38.3999 N   0  0  0  0  0  0  0  0  0  0  0  0
   37.2521  -22.9706   38.2922 H   0  0  0  0  0  0  0  0  0  0  0  0
   37.3898  -21.3643   39.7101 C   0  0  0  0  0  0  0  0  0  0  0  0
   36.2867  -21.7732   40.6618 C   0  0  0  0  0  0  0  0  0  0  0  0
   36.8555  -21.3246   41.9996 C   0  0  0  0  0  0  0  0  0  0  0  0
   38.3450  -21.3499   41.8515 C   0  0  0  0  0  0  0  0  0  0  0  0
   38.5808  -21.9648   40.4637 C   0  0  0  0  0  0  0  0  0  0  0  0
   38.5220  -23.4539   40.5541 C   0  0  0  0  0  0  0  0  0  0  0  0
   37.2621  -24.0416   40.7773 N   0  0  0  0  0  0  0  0  0  0  0  0
   37.2068  -24.9442   41.9052 C   0  0  0  0  0  0  0  0  0  0  0  0
   36.1032  -23.2439   40.6196 C   0  0  0  0  0  0  0  0  0  0  0  0
   41.1495  -20.1544   33.6400 O   0  0  0  0  0  0  0  0  0  0  0  0
   41.7378  -18.9885   33.2062 C   0  0  0  0  0  0  0  0  0  0  0  0
   42.3606  -18.0936   34.2027 C   0  0  0  0  0  0  0  0  0  0  0  0
   43.7317  -18.4240   34.6394 C   0  0  0  0  0  0  0  0  0  0  0  0
   44.1051  -18.0755   35.9753 N   0  0  0  0  0  0  0  0  0  0  0  0
   43.0514  -18.7058   36.8249 C   0  0  0  0  0  0  0  0  0  0  0  0
   43.3823  -18.0531   38.1454 C   0  0  0  0  0  0  0  0  0  0  0  0
   43.4722  -16.6074   37.7519 C   0  0  0  0  0  0  0  0  0  0  0  0
   44.0253  -16.6932   36.3254 C   0  0  0  0  0  0  0  0  0  0  0  0
 17 18  1  0  0  0
 18  1  1  0  0  0
  1  2  2  0  0  0
  2  3  1  0  0  0
  3  4  2  0  0  0
  4 19  1  0  0  0
 19 21  1  0  0  0
 21 22  1  0  0  0
 22 23  1  0  0  0
 23 24  1  0  0  0
 24 25  1  0  0  0
 25 26  1  0  0  0
 26 27  1  0  0  0
 27 28  1  0  0  0
 27 29  1  0  0  0
  4  5  1  0  0  0
  5  6  2  0  0  0
  6  7  1  0  0  0
  7  8  2  0  0  0
  8  9  1  0  0  0
  9 10  2  0  0  0
 10 30  1  0  0  0
 30 31  1  0  0  0
 31 32  1  0  0  0
 32 33  1  0  0  0
 33 34  1  0  0  0
 34 35  1  0  0  0
 35 36  1  0  0  0
 36 37  1  0  0  0
 37 38  1  0  0  0
  6 11  1  0  0  0
 11 12  2  0  0  0
 12 13  1  0  0  0
 13 14  2  0  0  0
 14 15  1  0  0  0
 14 16  1  0  0  0
 10  1  1  0  0  0
 38 34  1  0  0  0
 16 11  1  0  0  0
  8  3  1  0  0  0
 25 21  1  0  0  0
 29 22  1  0  0  0
 19 20  1  0  0  0
M  END
> <minimizedAffinity>
-4.48610

> <CNNscore>
0.2768628001

> <CNNaffinity>
5.7806363106

> <CNN_VS>
1.6004431248

> <CNNaffinity_variance>
0.0196207725

$$$$
[H]c1c(-c2nc3c([H])c(OC([H])([H])C([H])([H])C([H])([H])N4C([H])([H])C([H])([H])C([H])([H])C4([H])[H])c(OC([H])([H])[H])c([H])c3c(N([H])C3([H])C4([H])C([H])([H])N(C([H])([H])[H])C([H])([H])C3([H])C([H])([H])C4([H])[H])c2[H])oc(C([H])([H])[H])c1[H]


 38 43  0  0  0  0  0  0  0  0999 V2000
   38.2353  -21.0915   36.4242 C   0  0  0  0  0  0  0  0  0  0  0  0
   36.9450  -20.6324   36.5337 C   0  0  0  0  0  0  0  0  0  0  0  0
   36.6234  -19.3017   36.6440 C   0  0  0  0  0  0  0  0  0  0  0  0
   35.3163  -18.8749   36.7539 C   0  0  0  0  0  0  0  0  0  0  0  0
   35.1135  -17.5080   36.8626 C   0  0  0  0  0  0  0  0  0  0  0  0
   36.1848  -16.6452   36.8583 C   0  0  0  0  0  0  0  0  0  0  0  0
   37.4332  -17.1171   36.7484 N   0  0  0  0  0  0  0  0  0  0  0  0
   37.6913  -18.4273   36.6398 C   0  0  0  0  0  0  0  0  0  0  0  0
   39.0138  -18.8778   36.5293 C   0  0  0  0  0  0  0  0  0  0  0  0
   39.3244  -20.1939   36.4196 C   0  0  0  0  0  0  0  0  0  0  0  0
   35.9696  -15.1973   36.9766 C   0  0  0  0  0  0  0  0  0  0  0  0
   36.9602  -14.2413   36.9102 C   0  0  0  0  0  0  0  0  0  0  0  0
   36.3607  -13.0029   37.0640 C   0  0  0  0  0  0  0  0  0  0  0  0
   35.0182  -13.2823   37.2178 C   0  0  0  0  0  0  0  0  0  0  0  0
   33.9936  -12.2331   37.4142 C   0  0  0  0  0  0  0  0  0  0  0  0
   34.8369  -14.5837   37.1594 O   0  0  0  0  0  0  0  0  0  0  0  0
   38.4022  -23.2710   37.4773 C   0  0  0  0  0  0  0  0  0  0  0  0
   38.4900  -22.4705   36.3152 O   0  0  0  0  0  0  0  0  0  0  0  0
   34.2229  -19.7824   36.7347 N   0  0  0  0  0  0  0  0  0  0  0  0
   33.6758  -19.9411   37.5840 H   0  0  0  0  0  0  0  0  0  0  0  0
   33.8828  -20.4875   35.5180 C   0  0  0  0  0  0  0  0  0  0  0  0
   32.6442  -21.3404   35.6861 C   0  0  0  0  0  0  0  0  0  0  0  0
   32.3141  -21.6877   34.2422 C   0  0  0  0  0  0  0  0  0  0  0  0
   32.8665  -20.5752   33.4066 C   0  0  0  0  0  0  0  0  0  0  0  0
   33.3676  -19.5427   34.4277 C   0  0  0  0  0  0  0  0  0  0  0  0
   32.2297  -18.6910   34.8851 C   0  0  0  0  0  0  0  0  0  0  0  0
   31.2667  -19.2882   35.7209 N   0  0  0  0  0  0  0  0  0  0  0  0
   29.9027  -19.1611   35.2594 C   0  0  0  0  0  0  0  0  0  0  0  0
   31.5621  -20.5413   36.3097 C   0  0  0  0  0  0  0  0  0  0  0  0
   40.5637  -20.7555   36.3021 O   0  0  0  0  0  0  0  0  0  0  0  0
   41.7160  -20.2228   35.7711 C   0  0  0  0  0  0  0  0  0  0  0  0
   42.0523  -20.5185   34.3636 C   0  0  0  0  0  0  0  0  0  0  0  0
   41.6136  -21.8221   33.8268 C   0  0  0  0  0  0  0  0  0  0  0  0
   42.6136  -22.6841   33.2768 N   0  0  0  0  0  0  0  0  0  0  0  0
   41.9912  -23.2142   32.0273 C   0  0  0  0  0  0  0  0  0  0  0  0
   42.9943  -24.2925   31.6956 C   0  0  0  0  0  0  0  0  0  0  0  0
   43.1149  -25.0057   33.0108 C   0  0  0  0  0  0  0  0  0  0  0  0
   42.9216  -23.8661   34.0168 C   0  0  0  0  0  0  0  0  0  0  0  0
 17 18  1  0  0  0
 18  1  1  0  0  0
  1  2  2  0  0  0
  2  3  1  0  0  0
  3  4  2  0  0  0
  4 19  1  0  0  0
 19 21  1  0  0  0
 21 22  1  0  0  0
 22 23  1  0  0  0
 23 24  1  0  0  0
 24 25  1  0  0  0
 25 26  1  0  0  0
 26 27  1  0  0  0
 27 28  1  0  0  0
 27 29  1  0  0  0
  4  5  1  0  0  0
  5  6  2  0  0  0
  6  7  1  0  0  0
  7  8  2  0  0  0
  8  9  1  0  0  0
  9 10  2  0  0  0
 10 30  1  0  0  0
 30 31  1  0  0  0
 31 32  1  0  0  0
 32 33  1  0  0  0
 33 34  1  0  0  0
 34 35  1  0  0  0
 35 36  1  0  0  0
 36 37  1  0  0  0
 37 38  1  0  0  0
  6 11  1  0  0  0
 11 12  2  0  0  0
 12 13  1  0  0  0
 13 14  2  0  0  0
 14 15  1  0  0  0
 14 16  1  0  0  0
 10  1  1  0  0  0
 38 34  1  0  0  0
 16 11  1  0  0  0
  8  3  1  0  0  0
 25 21  1  0  0  0
 29 22  1  0  0  0
 19 20  1  0  0  0
M  END
> <minimizedAffinity>
-6.29233

> <CNNscore>
0.2745952606

> <CNNaffinity>
6.4718427658

> <CNN_VS>
1.7771373987

> <CNNaffinity_variance>
0.0101563977

$$$$
[H]c1c(-c2nc3c([H])c(OC([H])([H])C([H])([H])C([H])([H])N4C([H])([H])C([H])([H])C([H])([H])C4([H])[H])c(OC([H])([H])[H])c([H])c3c(N([H])C3([H])C4([H])C([H])([H])N(C([H])([H])[H])C([H])([H])C3([H])C([H])([H])C4([H])[H])c2[H])oc(C([H])([H])[H])c1[H]


 38 43  0  0  0  0  0  0  0  0999 V2000
   38.1312  -20.8304   36.2487 C   0  0  0  0  0  0  0  0  0  0  0  0
   36.8273  -20.4276   36.4070 C   0  0  0  0  0  0  0  0  0  0  0  0
   36.4527  -19.1119   36.5299 C   0  0  0  0  0  0  0  0  0  0  0  0
   35.1334  -18.7419   36.6892 C   0  0  0  0  0  0  0  0  0  0  0  0
   34.8757  -17.3850   36.8060 C   0  0  0  0  0  0  0  0  0  0  0  0
   35.9077  -16.4766   36.7616 C   0  0  0  0  0  0  0  0  0  0  0  0
   37.1704  -16.8941   36.6045 N   0  0  0  0  0  0  0  0  0  0  0  0
   37.4808  -18.1920   36.4857 C   0  0  0  0  0  0  0  0  0  0  0  0
   38.8164  -18.5849   36.3252 C   0  0  0  0  0  0  0  0  0  0  0  0
   39.1794  -19.8865   36.2034 C   0  0  0  0  0  0  0  0  0  0  0  0
   35.6346  -15.0392   36.8885 C   0  0  0  0  0  0  0  0  0  0  0  0
   36.5046  -14.0328   36.5281 C   0  0  0  0  0  0  0  0  0  0  0  0
   35.8857  -12.8245   36.7992 C   0  0  0  0  0  0  0  0  0  0  0  0
   34.6550  -13.1719   37.3175 C   0  0  0  0  0  0  0  0  0  0  0  0
   33.6516  -12.1744   37.7499 C   0  0  0  0  0  0  0  0  0  0  0  0
   34.5531  -14.4829   37.3505 O   0  0  0  0  0  0  0  0  0  0  0  0
   38.6341  -22.9547   37.3077 C   0  0  0  0  0  0  0  0  0  0  0  0
   38.4411  -22.1973   36.1296 O   0  0  0  0  0  0  0  0  0  0  0  0
   34.0804  -19.6960   36.7110 N   0  0  0  0  0  0  0  0  0  0  0  0
   33.5380  -19.8388   37.5660 H   0  0  0  0  0  0  0  0  0  0  0  0
   33.7751  -20.4709   35.5279 C   0  0  0  0  0  0  0  0  0  0  0  0
   32.5935  -21.3912   35.7442 C   0  0  0  0  0  0  0  0  0  0  0  0
   32.2739  -21.8181   34.3194 C   0  0  0  0  0  0  0  0  0  0  0  0
   32.7491  -20.7093   33.4330 C   0  0  0  0  0  0  0  0  0  0  0  0
   33.1931  -19.6061   34.4053 C   0  0  0  0  0  0  0  0  0  0  0  0
   32.0081  -18.8083   34.8395 C   0  0  0  0  0  0  0  0  0  0  0  0
   31.0911  -19.4286   35.7094 N   0  0  0  0  0  0  0  0  0  0  0  0
   29.7180  -19.4056   35.2577 C   0  0  0  0  0  0  0  0  0  0  0  0
   31.4688  -20.6354   36.3459 C   0  0  0  0  0  0  0  0  0  0  0  0
   40.4366  -20.3940   36.0390 O   0  0  0  0  0  0  0  0  0  0  0  0
   41.4560  -20.5130   36.9556 C   0  0  0  0  0  0  0  0  0  0  0  0
   41.6362  -19.4454   37.9602 C   0  0  0  0  0  0  0  0  0  0  0  0
   42.4524  -19.7694   39.1471 C   0  0  0  0  0  0  0  0  0  0  0  0
   41.8543  -19.5886   40.4336 N   0  0  0  0  0  0  0  0  0  0  0  0
   42.9156  -18.9128   41.2376 C   0  0  0  0  0  0  0  0  0  0  0  0
   42.2912  -19.0267   42.6074 C   0  0  0  0  0  0  0  0  0  0  0  0
   41.9225  -20.4810   42.6497 C   0  0  0  0  0  0  0  0  0  0  0  0
   41.5760  -20.7705   41.1854 C   0  0  0  0  0  0  0  0  0  0  0  0
 17 18  1  0  0  0
 18  1  1  0  0  0
  1  2  2  0  0  0
  2  3  1  0  0  0
  3  4  2  0  0  0
  4 19  1  0  0  0
 19 21  1  0  0  0
 21 22  1  0  0  0
 22 23  1  0  0  0
 23 24  1  0  0  0
 24 25  1  0  0  0
 25 26  1  0  0  0
 26 27  1  0  0  0
 27 28  1  0  0  0
 27 29  1  0  0  0
  4  5  1  0  0  0
  5  6  2  0  0  0
  6  7  1  0  0  0
  7  8  2  0  0  0
  8  9  1  0  0  0
  9 10  2  0  0  0
 10 30  1  0  0  0
 30 31  1  0  0  0
 31 32  1  0  0  0
 32 33  1  0  0  0
 33 34  1  0  0  0
 34 35  1  0  0  0
 35 36  1  0  0  0
 36 37  1  0  0  0
 37 38  1  0  0  0
  6 11  1  0  0  0
 11 12  2  0  0  0
 12 13  1  0  0  0
 13 14  2  0  0  0
 14 15  1  0  0  0
 14 16  1  0  0  0
 10  1  1  0  0  0
 38 34  1  0  0  0
 16 11  1  0  0  0
  8  3  1  0  0  0
 25 21  1  0  0  0
 29 22  1  0  0  0
 19 20  1  0  0  0
M  END
> <minimizedAffinity>
-6.46859

> <CNNscore>
0.2579375207

> <CNNaffinity>
6.4331932068

> <CNN_VS>
1.6593619585

> <CNNaffinity_variance>
0.0222949535

$$$$
[H]c1c(-c2nc3c([H])c(OC([H])([H])C([H])([H])C([H])([H])N4C([H])([H])C([H])([H])C([H])([H])C4([H])[H])c(OC([H])([H])[H])c([H])c3c(N([H])C3([H])C([H])([H])C([H])([H])N(C([H])(C([H])([H])[H])C([H])([H])[H])C([H])([H])C3([H])[H])c2[H])oc(C([H])([H])[H])c1[H]


 38 42  0  0  0  0  0  0  0  0999 V2000
   36.0809  -13.8520   36.6046 C   0  0  0  0  0  0  0  0  0  0  0  0
   36.5149  -15.1051   36.2634 C   0  0  0  0  0  0  0  0  0  0  0  0
   35.6380  -16.0991   35.9908 C   0  0  0  0  0  0  0  0  0  0  0  0
   36.0542  -17.3751   35.6229 C   0  0  0  0  0  0  0  0  0  0  0  0
   35.0720  -18.3029   35.3452 C   0  0  0  0  0  0  0  0  0  0  0  0
   33.7235  -18.0334   35.4170 C   0  0  0  0  0  0  0  0  0  0  0  0
   33.3870  -16.7913   35.7772 N   0  0  0  0  0  0  0  0  0  0  0  0
   34.2868  -15.8291   36.0617 C   0  0  0  0  0  0  0  0  0  0  0  0
   33.8387  -14.5492   36.4103 C   0  0  0  0  0  0  0  0  0  0  0  0
   34.7117  -13.5259   36.6901 C   0  0  0  0  0  0  0  0  0  0  0  0
   32.7464  -19.0808   35.1426 C   0  0  0  0  0  0  0  0  0  0  0  0
   32.9542  -20.1182   34.2550 C   0  0  0  0  0  0  0  0  0  0  0  0
   31.7991  -20.9090   34.2616 C   0  0  0  0  0  0  0  0  0  0  0  0
   30.9548  -20.3014   35.1566 C   0  0  0  0  0  0  0  0  0  0  0  0
   29.5915  -20.7656   35.5147 C   0  0  0  0  0  0  0  0  0  0  0  0
   31.5500  -19.2320   35.6518 O   0  0  0  0  0  0  0  0  0  0  0  0
   38.2410  -13.2531   37.5141 C   0  0  0  0  0  0  0  0  0  0  0  0
   37.0367  -12.8750   36.8714 O   0  0  0  0  0  0  0  0  0  0  0  0
   37.4289  -17.6981   35.6345 N   0  0  0  0  0  0  0  0  0  0  0  0
   38.1559  -16.9400   35.5857 H   0  0  0  0  0  0  0  0  0  0  0  0
   37.8820  -19.0747   35.7362 C   0  0  0  0  0  0  0  0  0  0  0  0
   39.0884  -19.1170   36.6267 C   0  0  0  0  0  0  0  0  0  0  0  0
   40.1989  -19.8365   35.8982 C   0  0  0  0  0  0  0  0  0  0  0  0
   40.5713  -19.0201   34.7686 N   0  0  0  0  0  0  0  0  0  0  0  0
   39.4738  -18.8801   33.8356 C   0  0  0  0  0  0  0  0  0  0  0  0
   38.2310  -19.5847   34.3377 C   0  0  0  0  0  0  0  0  0  0  0  0
   41.8078  -19.3254   34.1458 C   0  0  0  0  0  0  0  0  0  0  0  0
   42.3959  -20.6538   34.5355 C   0  0  0  0  0  0  0  0  0  0  0  0
   42.8157  -18.2417   34.4241 C   0  0  0  0  0  0  0  0  0  0  0  0
   34.3900  -12.3284   37.0136 O   0  0  0  0  0  0  0  0  0  0  0  0
   34.0668  -11.1222   37.3347 C   0  0  0  0  0  0  0  0  0  0  0  0
   32.6417  -10.7739   37.7477 C   0  0  0  0  0  0  0  0  0  0  0  0
   31.9010  -12.0341   38.0329 C   0  0  0  0  0  0  0  0  0  0  0  0
   30.4974  -11.9672   37.6590 N   0  0  0  0  0  0  0  0  0  0  0  0
   30.1009  -10.6067   37.3778 C   0  0  0  0  0  0  0  0  0  0  0  0
   29.2153  -10.1214   38.4878 C   0  0  0  0  0  0  0  0  0  0  0  0
   28.9382  -11.3550   39.3180 C   0  0  0  0  0  0  0  0  0  0  0  0
   29.6010  -12.5013   38.6204 C   0  0  0  0  0  0  0  0  0  0  0  0
 17 18  1  0  0  0
 18  1  1  0  0  0
  1  2  2  0  0  0
  2  3  1  0  0  0
  3  4  2  0  0  0
  4 19  1  0  0  0
 19 21  1  0  0  0
 21 22  1  0  0  0
 22 23  1  0  0  0
 23 24  1  0  0  0
 24 25  1  0  0  0
 25 26  1  0  0  0
 24 27  1  0  0  0
 27 28  1  0  0  0
 27 29  1  0  0  0
  4  5  1  0  0  0
  5  6  2  0  0  0
  6  7  1  0  0  0
  7  8  2  0  0  0
  8  9  1  0  0  0
  9 10  2  0  0  0
 10 30  1  0  0  0
 30 31  1  0  0  0
 31 32  1  0  0  0
 32 33  1  0  0  0
 33 34  1  0  0  0
 34 35  1  0  0  0
 35 36  1  0  0  0
 36 37  1  0  0  0
 37 38  1  0  0  0
  6 11  1  0  0  0
 11 12  2  0  0  0
 12 13  1  0  0  0
 13 14  2  0  0  0
 14 15  1  0  0  0
 14 16  1  0  0  0
 10  1  1  0  0  0
 38 34  1  0  0  0
 16 11  1  0  0  0
  8  3  1  0  0  0
 26 21  1  0  0  0
 19 20  1  0  0  0
M  END
> <minimizedAffinity>
-8.73141

> <CNNscore>
0.7937632799

> <CNNaffinity>
7.4568300247

> <CNN_VS>
5.9189577103

> <CNNaffinity_variance>
0.1135476977

$$$$
[H]c1c(-c2nc3c([H])c(OC([H])([H])C([H])([H])C([H])([H])N4C([H])([H])C([H])([H])C([H])([H])C4([H])[H])c(OC([H])([H])[H])c([H])c3c(N([H])C3([H])C([H])([H])C([H])([H])N(C([H])(C([H])([H])[H])C([H])([H])[H])C([H])([H])C3([H])[H])c2[H])oc(C([H])([H])[H])c1[H]


 38 42  0  0  0  0  0  0  0  0999 V2000
   35.9424  -14.0242   36.4207 C   0  0  0  0  0  0  0  0  0  0  0  0
   36.3801  -15.2180   35.9125 C   0  0  0  0  0  0  0  0  0  0  0  0
   35.5209  -16.2381   35.6835 C   0  0  0  0  0  0  0  0  0  0  0  0
   35.9382  -17.4536   35.1495 C   0  0  0  0  0  0  0  0  0  0  0  0
   34.9710  -18.4139   34.9365 C   0  0  0  0  0  0  0  0  0  0  0  0
   33.6369  -18.2323   35.2252 C   0  0  0  0  0  0  0  0  0  0  0  0
   33.2988  -17.0451   35.7371 N   0  0  0  0  0  0  0  0  0  0  0  0
   34.1839  -16.0562   35.9717 C   0  0  0  0  0  0  0  0  0  0  0  0
   33.7320  -14.8372   36.4916 C   0  0  0  0  0  0  0  0  0  0  0  0
   34.5870  -13.7888   36.7308 C   0  0  0  0  0  0  0  0  0  0  0  0
   32.6810  -19.3115   35.0042 C   0  0  0  0  0  0  0  0  0  0  0  0
   32.8969  -20.3713   34.1456 C   0  0  0  0  0  0  0  0  0  0  0  0
   31.7623  -21.1893   34.2010 C   0  0  0  0  0  0  0  0  0  0  0  0
   30.9212  -20.5742   35.0939 C   0  0  0  0  0  0  0  0  0  0  0  0
   29.5774  -21.0599   35.4946 C   0  0  0  0  0  0  0  0  0  0  0  0
   31.4992  -19.4754   35.5427 O   0  0  0  0  0  0  0  0  0  0  0  0
   38.0334  -13.3035   37.4004 C   0  0  0  0  0  0  0  0  0  0  0  0
   36.8794  -13.0159   36.6310 O   0  0  0  0  0  0  0  0  0  0  0  0
   37.3132  -17.6935   34.9347 N   0  0  0  0  0  0  0  0  0  0  0  0
   37.8615  -17.0948   34.2664 H   0  0  0  0  0  0  0  0  0  0  0  0
   38.0162  -18.7513   35.6400 C   0  0  0  0  0  0  0  0  0  0  0  0
   37.3888  -20.0655   35.2804 C   0  0  0  0  0  0  0  0  0  0  0  0
   37.0333  -20.7935   36.5552 C   0  0  0  0  0  0  0  0  0  0  0  0
   36.0005  -20.0302   37.2124 N   0  0  0  0  0  0  0  0  0  0  0  0
   36.4771  -18.7178   37.5929 C   0  0  0  0  0  0  0  0  0  0  0  0
   37.9068  -18.4997   37.1442 C   0  0  0  0  0  0  0  0  0  0  0  0
   35.2806  -20.6906   38.2399 C   0  0  0  0  0  0  0  0  0  0  0  0
   33.8692  -21.0635   37.8776 C   0  0  0  0  0  0  0  0  0  0  0  0
   35.2610  -19.8498   39.4890 C   0  0  0  0  0  0  0  0  0  0  0  0
   34.2603  -12.6421   37.2005 O   0  0  0  0  0  0  0  0  0  0  0  0
   33.9280  -11.4903   37.6753 C   0  0  0  0  0  0  0  0  0  0  0  0
   32.4703  -11.0474   37.7150 C   0  0  0  0  0  0  0  0  0  0  0  0
   31.6203  -12.2184   38.0678 C   0  0  0  0  0  0  0  0  0  0  0  0
   30.2164  -12.0217   37.7439 N   0  0  0  0  0  0  0  0  0  0  0  0
   29.9377  -10.6302   37.4733 C   0  0  0  0  0  0  0  0  0  0  0  0
   29.1410  -10.0656   38.6128 C   0  0  0  0  0  0  0  0  0  0  0  0
   28.7808  -11.2688   39.4558 C   0  0  0  0  0  0  0  0  0  0  0  0
   29.3094  -12.4711   38.7383 C   0  0  0  0  0  0  0  0  0  0  0  0
 17 18  1  0  0  0
 18  1  1  0  0  0
  1  2  2  0  0  0
  2  3  1  0  0  0
  3  4  2  0  0  0
  4 19  1  0  0  0
 19 21  1  0  0  0
 21 22  1  0  0  0
 22 23  1  0  0  0
 23 24  1  0  0  0
 24 25  1  0  0  0
 25 26  1  0  0  0
 24 27  1  0  0  0
 27 28  1  0  0  0
 27 29  1  0  0  0
  4  5  1  0  0  0
  5  6  2  0  0  0
  6  7  1  0  0  0
  7  8  2  0  0  0
  8  9  1  0  0  0
  9 10  2  0  0  0
 10 30  1  0  0  0
 30 31  1  0  0  0
 31 32  1  0  0  0
 32 33  1  0  0  0
 33 34  1  0  0  0
 34 35  1  0  0  0
 35 36  1  0  0  0
 36 37  1  0  0  0
 37 38  1  0  0  0
  6 11  1  0  0  0
 11 12  2  0  0  0
 12 13  1  0  0  0
 13 14  2  0  0  0
 14 15  1  0  0  0
 14 16  1  0  0  0
 10  1  1  0  0  0
 38 34  1  0  0  0
 16 11  1  0  0  0
  8  3  1  0  0  0
 26 21  1  0  0  0
 19 20  1  0  0  0
M  END
> <minimizedAffinity>
-7.77897

> <CNNscore>
0.6549571753

> <CNNaffinity>
7.2904996872

> <CNN_VS>
4.7749652863

> <CNNaffinity_variance>
0.1336615086

$$$$
[H]c1c(-c2nc3c([H])c(OC([H])([H])C([H])([H])C([H])([H])N4C([H])([H])C([H])([H])C([H])([H])C4([H])[H])c(OC([H])([H])[H])c([H])c3c(N([H])C3([H])C([H])([H])C([H])([H])N(C([H])(C([H])([H])[H])C([H])([H])[H])C([H])([H])C3([H])[H])c2[H])oc(C([H])([H])[H])c1[H]


 38 42  0  0  0  0  0  0  0  0999 V2000
   35.9187  -14.9862   36.3676 C   0  0  0  0  0  0  0  0  0  0  0  0
   36.2816  -16.0679   35.6105 C   0  0  0  0  0  0  0  0  0  0  0  0
   35.4314  -17.1026   35.4158 C   0  0  0  0  0  0  0  0  0  0  0  0
   35.7697  -18.2036   34.6347 C   0  0  0  0  0  0  0  0  0  0  0  0
   34.8153  -19.1885   34.4865 C   0  0  0  0  0  0  0  0  0  0  0  0
   33.5677  -19.1375   35.0670 C   0  0  0  0  0  0  0  0  0  0  0  0
   33.3031  -18.0562   35.8062 N   0  0  0  0  0  0  0  0  0  0  0  0
   34.1809  -17.0514   35.9964 C   0  0  0  0  0  0  0  0  0  0  0  0
   33.8057  -15.9474   36.7715 C   0  0  0  0  0  0  0  0  0  0  0  0
   34.6529  -14.8863   36.9810 C   0  0  0  0  0  0  0  0  0  0  0  0
   32.6270  -20.2382   34.8913 C   0  0  0  0  0  0  0  0  0  0  0  0
   32.7859  -21.2502   33.9652 C   0  0  0  0  0  0  0  0  0  0  0  0
   31.6878  -22.1087   34.0947 C   0  0  0  0  0  0  0  0  0  0  0  0
   30.9240  -21.5639   35.0961 C   0  0  0  0  0  0  0  0  0  0  0  0
   29.6432  -22.1134   35.6059 C   0  0  0  0  0  0  0  0  0  0  0  0
   31.5116  -20.4670   35.5371 O   0  0  0  0  0  0  0  0  0  0  0  0
   37.8117  -14.0576   37.5533 C   0  0  0  0  0  0  0  0  0  0  0  0
   36.8413  -13.9554   36.5265 O   0  0  0  0  0  0  0  0  0  0  0  0
   37.0752  -18.3195   34.1087 N   0  0  0  0  0  0  0  0  0  0  0  0
   37.6110  -17.4633   33.8166 H   0  0  0  0  0  0  0  0  0  0  0  0
   37.7254  -19.6118   33.9753 C   0  0  0  0  0  0  0  0  0  0  0  0
   38.1515  -20.0760   35.3366 C   0  0  0  0  0  0  0  0  0  0  0  0
   39.6189  -20.4309   35.2862 C   0  0  0  0  0  0  0  0  0  0  0  0
   40.3479  -19.2106   35.0397 N   0  0  0  0  0  0  0  0  0  0  0  0
   40.0050  -18.6431   33.7533 C   0  0  0  0  0  0  0  0  0  0  0  0
   38.9386  -19.4622   33.0568 C   0  0  0  0  0  0  0  0  0  0  0  0
   41.7432  -19.2441   35.2895 C   0  0  0  0  0  0  0  0  0  0  0  0
   42.5592  -18.3299   34.4174 C   0  0  0  0  0  0  0  0  0  0  0  0
   42.2660  -20.6496   35.1521 C   0  0  0  0  0  0  0  0  0  0  0  0
   34.3919  -13.8385   37.6712 O   0  0  0  0  0  0  0  0  0  0  0  0
   34.1326  -12.7854   38.3685 C   0  0  0  0  0  0  0  0  0  0  0  0
   33.0602  -11.7959   37.9285 C   0  0  0  0  0  0  0  0  0  0  0  0
   33.6227  -10.9165   36.8663 C   0  0  0  0  0  0  0  0  0  0  0  0
   33.7280   -9.5249   37.2750 N   0  0  0  0  0  0  0  0  0  0  0  0
   32.4423   -8.8688   37.2138 C   0  0  0  0  0  0  0  0  0  0  0  0
   32.4422   -7.9111   36.0585 C   0  0  0  0  0  0  0  0  0  0  0  0
   33.8796   -7.8847   35.5884 C   0  0  0  0  0  0  0  0  0  0  0  0
   34.6555   -8.7551   36.5265 C   0  0  0  0  0  0  0  0  0  0  0  0
 17 18  1  0  0  0
 18  1  1  0  0  0
  1  2  2  0  0  0
  2  3  1  0  0  0
  3  4  2  0  0  0
  4 19  1  0  0  0
 19 21  1  0  0  0
 21 22  1  0  0  0
 22 23  1  0  0  0
 23 24  1  0  0  0
 24 25  1  0  0  0
 25 26  1  0  0  0
 24 27  1  0  0  0
 27 28  1  0  0  0
 27 29  1  0  0  0
  4  5  1  0  0  0
  5  6  2  0  0  0
  6  7  1  0  0  0
  7  8  2  0  0  0
  8  9  1  0  0  0
  9 10  2  0  0  0
 10 30  1  0  0  0
 30 31  1  0  0  0
 31 32  1  0  0  0
 32 33  1  0  0  0
 33 34  1  0  0  0
 34 35  1  0  0  0
 35 36  1  0  0  0
 36 37  1  0  0  0
 37 38  1  0  0  0
  6 11  1  0  0  0
 11 12  2  0  0  0
 12 13  1  0  0  0
 13 14  2  0  0  0
 14 15  1  0  0  0
 14 16  1  0  0  0
 10  1  1  0  0  0
 38 34  1  0  0  0
 16 11  1  0  0  0
  8  3  1  0  0  0
 26 21  1  0  0  0
 19 20  1  0  0  0
M  END
> <minimizedAffinity>
-5.62800

> <CNNscore>
0.4923597574

> <CNNaffinity>
7.1175904274

> <CNN_VS>
3.5044150352

> <CNNaffinity_variance>
0.0223778244

$$$$
[H]c1c(-c2nc3c([H])c(OC([H])([H])C([H])([H])C([H])([H])N4C([H])([H])C([H])([H])C([H])([H])C4([H])[H])c(OC([H])([H])[H])c([H])c3c(N([H])C3([H])C([H])([H])C([H])([H])N(C([H])(C([H])([H])[H])C([H])([H])[H])C([H])([H])C3([H])[H])c2[H])oc(C([H])([H])[H])c1[H]


 38 42  0  0  0  0  0  0  0  0999 V2000
   36.0883  -14.4648   36.9832 C   0  0  0  0  0  0  0  0  0  0  0  0
   36.6399  -15.7176   36.9505 C   0  0  0  0  0  0  0  0  0  0  0  0
   35.9164  -16.7906   36.5548 C   0  0  0  0  0  0  0  0  0  0  0  0
   36.4599  -18.0703   36.4943 C   0  0  0  0  0  0  0  0  0  0  0  0
   35.6359  -19.0850   36.0536 C   0  0  0  0  0  0  0  0  0  0  0  0
   34.3237  -18.8967   35.6809 C   0  0  0  0  0  0  0  0  0  0  0  0
   33.8594  -17.6464   35.7623 N   0  0  0  0  0  0  0  0  0  0  0  0
   34.6019  -16.6022   36.1802 C   0  0  0  0  0  0  0  0  0  0  0  0
   34.0338  -15.3228   36.2123 C   0  0  0  0  0  0  0  0  0  0  0  0
   34.7506  -14.2203   36.6099 C   0  0  0  0  0  0  0  0  0  0  0  0
   33.5069  -20.0293   35.2600 C   0  0  0  0  0  0  0  0  0  0  0  0
   32.7852  -20.0666   34.0832 C   0  0  0  0  0  0  0  0  0  0  0  0
   32.1333  -21.3045   34.0341 C   0  0  0  0  0  0  0  0  0  0  0  0
   32.4995  -21.9476   35.1896 C   0  0  0  0  0  0  0  0  0  0  0  0
   32.0619  -23.3042   35.6025 C   0  0  0  0  0  0  0  0  0  0  0  0
   33.3072  -21.1644   35.8805 O   0  0  0  0  0  0  0  0  0  0  0  0
   38.2688  -13.6350   37.6224 C   0  0  0  0  0  0  0  0  0  0  0  0
   36.8892  -13.4043   37.3994 O   0  0  0  0  0  0  0  0  0  0  0  0
   37.7729  -18.3005   36.9606 N   0  0  0  0  0  0  0  0  0  0  0  0
   37.9645  -18.3980   37.9899 H   0  0  0  0  0  0  0  0  0  0  0  0
   38.8903  -18.4319   36.0415 C   0  0  0  0  0  0  0  0  0  0  0  0
   38.3677  -18.9036   34.7170 C   0  0  0  0  0  0  0  0  0  0  0  0
   39.1504  -20.1260   34.2989 C   0  0  0  0  0  0  0  0  0  0  0  0
   38.8437  -21.1754   35.2402 N   0  0  0  0  0  0  0  0  0  0  0  0
   39.2806  -20.8290   36.5757 C   0  0  0  0  0  0  0  0  0  0  0  0
   39.8855  -19.4414   36.6146 C   0  0  0  0  0  0  0  0  0  0  0  0
   39.1927  -22.4945   34.8550 C   0  0  0  0  0  0  0  0  0  0  0  0
   39.4424  -23.4374   35.9999 C   0  0  0  0  0  0  0  0  0  0  0  0
   40.4044  -22.4757   33.9612 C   0  0  0  0  0  0  0  0  0  0  0  0
   34.3128  -13.0172   36.6668 O   0  0  0  0  0  0  0  0  0  0  0  0
   33.8745  -11.8059   36.7201 C   0  0  0  0  0  0  0  0  0  0  0  0
   32.9411  -11.3563   37.8379 C   0  0  0  0  0  0  0  0  0  0  0  0
   31.6191  -12.0177   37.6570 C   0  0  0  0  0  0  0  0  0  0  0  0
   30.5928  -11.4921   38.5431 N   0  0  0  0  0  0  0  0  0  0  0  0
   29.7884  -12.5586   39.0933 C   0  0  0  0  0  0  0  0  0  0  0  0
   28.4278  -12.5138   38.4619 C   0  0  0  0  0  0  0  0  0  0  0  0
   28.4167  -11.2205   37.6775 C   0  0  0  0  0  0  0  0  0  0  0  0
   29.7235  -10.5425   37.9468 C   0  0  0  0  0  0  0  0  0  0  0  0
 17 18  1  0  0  0
 18  1  1  0  0  0
  1  2  2  0  0  0
  2  3  1  0  0  0
  3  4  2  0  0  0
  4 19  1  0  0  0
 19 21  1  0  0  0
 21 22  1  0  0  0
 22 23  1  0  0  0
 23 24  1  0  0  0
 24 25  1  0  0  0
 25 26  1  0  0  0
 24 27  1  0  0  0
 27 28  1  0  0  0
 27 29  1  0  0  0
  4  5  1  0  0  0
  5  6  2  0  0  0
  6  7  1  0  0  0
  7  8  2  0  0  0
  8  9  1  0  0  0
  9 10  2  0  0  0
 10 30  1  0  0  0
 30 31  1  0  0  0
 31 32  1  0  0  0
 32 33  1  0  0  0
 33 34  1  0  0  0
 34 35  1  0  0  0
 35 36  1  0  0  0
 36 37  1  0  0  0
 37 38  1  0  0  0
  6 11  1  0  0  0
 11 12  2  0  0  0
 12 13  1  0  0  0
 13 14  2  0  0  0
 14 15  1  0  0  0
 14 16  1  0  0  0
 10  1  1  0  0  0
 38 34  1  0  0  0
 16 11  1  0  0  0
  8  3  1  0  0  0
 26 21  1  0  0  0
 19 20  1  0  0  0
M  END
> <minimizedAffinity>
-7.21310

> <CNNscore>
0.4083977640

> <CNNaffinity>
6.7859582901

> <CNN_VS>
2.7713701725

> <CNNaffinity_variance>
0.0562467799

$$$$
[H]c1c(-c2nc3c([H])c(OC([H])([H])C([H])([H])C([H])([H])N4C([H])([H])C([H])([H])C([H])([H])C4([H])[H])c(OC([H])([H])[H])c([H])c3c(N([H])C3([H])C([H])([H])C([H])([H])N(C([H])(C([H])([H])[H])C([H])([H])[H])C([H])([H])C3([H])[H])c2[H])oc(C([H])([H])[H])c1[H]


 38 42  0  0  0  0  0  0  0  0999 V2000
   36.1599  -14.3777   36.8700 C   0  0  0  0  0  0  0  0  0  0  0  0
   36.7755  -15.5723   36.6072 C   0  0  0  0  0  0  0  0  0  0  0  0
   36.0596  -16.6663   36.2577 C   0  0  0  0  0  0  0  0  0  0  0  0
   36.6634  -17.8859   35.9668 C   0  0  0  0  0  0  0  0  0  0  0  0
   35.8365  -18.9268   35.5988 C   0  0  0  0  0  0  0  0  0  0  0  0
   34.4664  -18.8203   35.5109 C   0  0  0  0  0  0  0  0  0  0  0  0
   33.9461  -17.6249   35.8040 N   0  0  0  0  0  0  0  0  0  0  0  0
   34.6869  -16.5597   36.1685 C   0  0  0  0  0  0  0  0  0  0  0  0
   34.0534  -15.3401   36.4366 C   0  0  0  0  0  0  0  0  0  0  0  0
   34.7611  -14.2175   36.7921 C   0  0  0  0  0  0  0  0  0  0  0  0
   33.6583  -19.9794   35.1493 C   0  0  0  0  0  0  0  0  0  0  0  0
   32.9970  -20.1149   33.9446 C   0  0  0  0  0  0  0  0  0  0  0  0
   32.3335  -21.3472   33.9707 C   0  0  0  0  0  0  0  0  0  0  0  0
   32.6325  -21.8886   35.1956 C   0  0  0  0  0  0  0  0  0  0  0  0
   32.1579  -23.2000   35.7028 C   0  0  0  0  0  0  0  0  0  0  0  0
   33.4134  -21.0537   35.8560 O   0  0  0  0  0  0  0  0  0  0  0  0
   38.2458  -13.5327   37.7571 C   0  0  0  0  0  0  0  0  0  0  0  0
   36.9562  -13.2913   37.2230 O   0  0  0  0  0  0  0  0  0  0  0  0
   38.0561  -18.0417   36.1417 N   0  0  0  0  0  0  0  0  0  0  0  0
   38.6576  -17.2178   36.3965 H   0  0  0  0  0  0  0  0  0  0  0  0
   38.6963  -19.3381   35.9994 C   0  0  0  0  0  0  0  0  0  0  0  0
   38.7274  -20.0065   37.3419 C   0  0  0  0  0  0  0  0  0  0  0  0
   40.1468  -20.4326   37.6343 C   0  0  0  0  0  0  0  0  0  0  0  0
   40.9357  -19.2327   37.7729 N   0  0  0  0  0  0  0  0  0  0  0  0
   40.9660  -18.4769   36.5391 C   0  0  0  0  0  0  0  0  0  0  0  0
   40.1163  -19.1325   35.4708 C   0  0  0  0  0  0  0  0  0  0  0  0
   42.2093  -19.3778   38.3789 C   0  0  0  0  0  0  0  0  0  0  0  0
   42.2568  -19.0083   39.8361 C   0  0  0  0  0  0  0  0  0  0  0  0
   43.2387  -18.5700   37.6338 C   0  0  0  0  0  0  0  0  0  0  0  0
   34.2649  -13.0647   37.0514 O   0  0  0  0  0  0  0  0  0  0  0  0
   33.7689  -11.9029   37.3095 C   0  0  0  0  0  0  0  0  0  0  0  0
   32.2876  -11.7334   37.6256 C   0  0  0  0  0  0  0  0  0  0  0  0
   31.9083  -12.7025   38.6909 C   0  0  0  0  0  0  0  0  0  0  0  0
   30.7783  -12.2571   39.4905 N   0  0  0  0  0  0  0  0  0  0  0  0
   30.5178  -13.1754   40.5750 C   0  0  0  0  0  0  0  0  0  0  0  0
   29.2520  -13.9258   40.2804 C   0  0  0  0  0  0  0  0  0  0  0  0
   28.6725  -13.2298   39.0688 C   0  0  0  0  0  0  0  0  0  0  0  0
   29.5731  -12.0739   38.7645 C   0  0  0  0  0  0  0  0  0  0  0  0
 17 18  1  0  0  0
 18  1  1  0  0  0
  1  2  2  0  0  0
  2  3  1  0  0  0
  3  4  2  0  0  0
  4 19  1  0  0  0
 19 21  1  0  0  0
 21 22  1  0  0  0
 22 23  1  0  0  0
 23 24  1  0  0  0
 24 25  1  0  0  0
 25 26  1  0  0  0
 24 27  1  0  0  0
 27 28  1  0  0  0
 27 29  1  0  0  0
  4  5  1  0  0  0
  5  6  2  0  0  0
  6  7  1  0  0  0
  7  8  2  0  0  0
  8  9  1  0  0  0
  9 10  2  0  0  0
 10 30  1  0  0  0
 30 31  1  0  0  0
 31 32  1  0  0  0
 32 33  1  0  0  0
 33 34  1  0  0  0
 34 35  1  0  0  0
 35 36  1  0  0  0
 36 37  1  0  0  0
 37 38  1  0  0  0
  6 11  1  0  0  0
 11 12  2  0  0  0
 12 13  1  0  0  0
 13 14  2  0  0  0
 14 15  1  0  0  0
 14 16  1  0  0  0
 10  1  1  0  0  0
 38 34  1  0  0  0
 16 11  1  0  0  0
  8  3  1  0  0  0
 26 21  1  0  0  0
 19 20  1  0  0  0
M  END
> <minimizedAffinity>
-7.52188

> <CNNscore>
0.4081217349

> <CNNaffinity>
6.7388763428

> <CNN_VS>
2.7502818108

> <CNNaffinity_variance>
0.0907143950

$$$$
[H]c1c(-c2nc3c([H])c(OC([H])([H])C([H])([H])C([H])([H])N4C([H])([H])C([H])([H])C([H])([H])C4([H])[H])c(OC([H])([H])[H])c([H])c3c(N([H])C3([H])C([H])([H])C([H])([H])N(C([H])(C([H])([H])[H])C([H])([H])[H])C([H])([H])C3([H])[H])c2[H])oc(C([H])([H])[H])c1[H]


 38 42  0  0  0  0  0  0  0  0999 V2000
   32.7077  -20.4746   34.7111 C   0  0  0  0  0  0  0  0  0  0  0  0
   34.0408  -20.1775   34.6128 C   0  0  0  0  0  0  0  0  0  0  0  0
   34.5229  -18.9808   35.0213 C   0  0  0  0  0  0  0  0  0  0  0  0
   35.8758  -18.6627   34.9500 C   0  0  0  0  0  0  0  0  0  0  0  0
   36.2572  -17.4221   35.4171 C   0  0  0  0  0  0  0  0  0  0  0  0
   35.3789  -16.4982   35.9379 C   0  0  0  0  0  0  0  0  0  0  0  0
   34.0936  -16.8614   35.9782 N   0  0  0  0  0  0  0  0  0  0  0  0
   33.6433  -18.0552   35.5441 C   0  0  0  0  0  0  0  0  0  0  0  0
   32.2794  -18.3548   35.6462 C   0  0  0  0  0  0  0  0  0  0  0  0
   31.7694  -19.5635   35.2383 C   0  0  0  0  0  0  0  0  0  0  0  0
   35.8571  -15.1925   36.3779 C   0  0  0  0  0  0  0  0  0  0  0  0
   35.0795  -14.0514   36.3983 C   0  0  0  0  0  0  0  0  0  0  0  0
   35.8832  -13.0088   36.8743 C   0  0  0  0  0  0  0  0  0  0  0  0
   37.1066  -13.5817   37.1151 C   0  0  0  0  0  0  0  0  0  0  0  0
   38.3063  -12.8782   37.6331 C   0  0  0  0  0  0  0  0  0  0  0  0
   37.0481  -14.8651   36.8112 O   0  0  0  0  0  0  0  0  0  0  0  0
   32.2780  -22.8070   35.1875 C   0  0  0  0  0  0  0  0  0  0  0  0
   32.2787  -21.7250   34.2733 O   0  0  0  0  0  0  0  0  0  0  0  0
   36.7781  -19.5576   34.3339 N   0  0  0  0  0  0  0  0  0  0  0  0
   36.4263  -20.3148   33.6948 H   0  0  0  0  0  0  0  0  0  0  0  0
   38.2118  -19.4495   34.5419 C   0  0  0  0  0  0  0  0  0  0  0  0
   38.9134  -20.0004   33.3359 C   0  0  0  0  0  0  0  0  0  0  0  0
   39.9150  -21.0346   33.7928 C   0  0  0  0  0  0  0  0  0  0  0  0
   39.1704  -22.1359   34.3531 N   0  0  0  0  0  0  0  0  0  0  0  0
   38.4225  -21.7252   35.5220 C   0  0  0  0  0  0  0  0  0  0  0  0
   38.5912  -20.2447   35.7916 C   0  0  0  0  0  0  0  0  0  0  0  0
   39.8759  -23.3527   34.5316 C   0  0  0  0  0  0  0  0  0  0  0  0
   41.3318  -23.2948   34.1582 C   0  0  0  0  0  0  0  0  0  0  0  0
   39.2138  -24.4604   33.7556 C   0  0  0  0  0  0  0  0  0  0  0  0
   30.5403  -19.9214   35.2975 O   0  0  0  0  0  0  0  0  0  0  0  0
   29.3049  -20.2851   35.3594 C   0  0  0  0  0  0  0  0  0  0  0  0
   28.9252  -21.7483   35.5543 C   0  0  0  0  0  0  0  0  0  0  0  0
   28.0223  -21.8589   36.7335 C   0  0  0  0  0  0  0  0  0  0  0  0
   28.7217  -21.7254   38.0014 N   0  0  0  0  0  0  0  0  0  0  0  0
   29.6983  -22.7771   38.1670 C   0  0  0  0  0  0  0  0  0  0  0  0
   29.2084  -23.7316   39.2163 C   0  0  0  0  0  0  0  0  0  0  0  0
   27.9954  -23.0509   39.8107 C   0  0  0  0  0  0  0  0  0  0  0  0
   27.8813  -21.7156   39.1446 C   0  0  0  0  0  0  0  0  0  0  0  0
 17 18  1  0  0  0
 18  1  1  0  0  0
  1  2  2  0  0  0
  2  3  1  0  0  0
  3  4  2  0  0  0
  4 19  1  0  0  0
 19 21  1  0  0  0
 21 22  1  0  0  0
 22 23  1  0  0  0
 23 24  1  0  0  0
 24 25  1  0  0  0
 25 26  1  0  0  0
 24 27  1  0  0  0
 27 28  1  0  0  0
 27 29  1  0  0  0
  4  5  1  0  0  0
  5  6  2  0  0  0
  6  7  1  0  0  0
  7  8  2  0  0  0
  8  9  1  0  0  0
  9 10  2  0  0  0
 10 30  1  0  0  0
 30 31  1  0  0  0
 31 32  1  0  0  0
 32 33  1  0  0  0
 33 34  1  0  0  0
 34 35  1  0  0  0
 35 36  1  0  0  0
 36 37  1  0  0  0
 37 38  1  0  0  0
  6 11  1  0  0  0
 11 12  2  0  0  0
 12 13  1  0  0  0
 13 14  2  0  0  0
 14 15  1  0  0  0
 14 16  1  0  0  0
 10  1  1  0  0  0
 38 34  1  0  0  0
 16 11  1  0  0  0
  8  3  1  0  0  0
 26 21  1  0  0  0
 19 20  1  0  0  0
M  END
> <minimizedAffinity>
-6.53830

> <CNNscore>
0.3998690248

> <CNNaffinity>
6.2042379379

> <CNN_VS>
2.4808826447

> <CNNaffinity_variance>
0.1439226270

$$$$
[H]c1c(-c2nc3c([H])c(OC([H])([H])C([H])([H])C([H])([H])N4C([H])([H])C([H])([H])C([H])([H])C4([H])[H])c(OC([H])([H])[H])c([H])c3c(N([H])C3([H])C([H])([H])C([H])([H])N(C([H])(C([H])([H])[H])C([H])([H])[H])C([H])([H])C3([H])[H])c2[H])oc(C([H])([H])[H])c1[H]


 38 42  0  0  0  0  0  0  0  0999 V2000
   38.2052  -20.5376   35.9763 C   0  0  0  0  0  0  0  0  0  0  0  0
   36.8923  -20.2261   35.7435 C   0  0  0  0  0  0  0  0  0  0  0  0
   36.4244  -18.9723   35.9445 C   0  0  0  0  0  0  0  0  0  0  0  0
   35.0994  -18.6265   35.6964 C   0  0  0  0  0  0  0  0  0  0  0  0
   34.7393  -17.3129   35.9144 C   0  0  0  0  0  0  0  0  0  0  0  0
   35.6112  -16.3453   36.3613 C   0  0  0  0  0  0  0  0  0  0  0  0
   36.8687  -16.7392   36.5829 N   0  0  0  0  0  0  0  0  0  0  0  0
   37.2979  -18.0023   36.3913 C   0  0  0  0  0  0  0  0  0  0  0  0
   38.6412  -18.3165   36.6308 C   0  0  0  0  0  0  0  0  0  0  0  0
   39.1369  -19.5824   36.4325 C   0  0  0  0  0  0  0  0  0  0  0  0
   35.1431  -14.9851   36.6019 C   0  0  0  0  0  0  0  0  0  0  0  0
   35.9567  -13.8699   36.5641 C   0  0  0  0  0  0  0  0  0  0  0  0
   35.1532  -12.7591   36.8470 C   0  0  0  0  0  0  0  0  0  0  0  0
   33.8939  -13.2686   37.0410 C   0  0  0  0  0  0  0  0  0  0  0  0
   32.6811  -12.4798   37.3711 C   0  0  0  0  0  0  0  0  0  0  0  0
   33.9318  -14.5793   36.8871 O   0  0  0  0  0  0  0  0  0  0  0  0
   39.0164  -22.2210   34.4402 C   0  0  0  0  0  0  0  0  0  0  0  0
   38.6210  -21.8468   35.7478 O   0  0  0  0  0  0  0  0  0  0  0  0
   34.1686  -19.6228   35.3284 N   0  0  0  0  0  0  0  0  0  0  0  0
   34.2507  -20.5982   35.7126 H   0  0  0  0  0  0  0  0  0  0  0  0
   33.0626  -19.3314   34.4326 C   0  0  0  0  0  0  0  0  0  0  0  0
   31.9304  -18.7661   35.2380 C   0  0  0  0  0  0  0  0  0  0  0  0
   30.6818  -19.5609   34.9365 C   0  0  0  0  0  0  0  0  0  0  0  0
   30.8922  -20.8978   35.4364 N   0  0  0  0  0  0  0  0  0  0  0  0
   31.9861  -21.5506   34.7496 C   0  0  0  0  0  0  0  0  0  0  0  0
   32.6331  -20.6254   33.7404 C   0  0  0  0  0  0  0  0  0  0  0  0
   29.7403  -21.7135   35.5694 C   0  0  0  0  0  0  0  0  0  0  0  0
   28.7012  -21.1826   36.5184 C   0  0  0  0  0  0  0  0  0  0  0  0
   30.1299  -23.1041   35.9959 C   0  0  0  0  0  0  0  0  0  0  0  0
   40.3479  -19.9558   36.6231 O   0  0  0  0  0  0  0  0  0  0  0  0
   41.5677  -20.3272   36.8143 C   0  0  0  0  0  0  0  0  0  0  0  0
   42.6629  -19.3084   37.1061 C   0  0  0  0  0  0  0  0  0  0  0  0
   43.7417  -19.9717   37.8899 C   0  0  0  0  0  0  0  0  0  0  0  0
   44.1376  -19.2159   39.0674 N   0  0  0  0  0  0  0  0  0  0  0  0
   44.6220  -20.0942   40.1073 C   0  0  0  0  0  0  0  0  0  0  0  0
   43.6066  -20.1435   41.2111 C   0  0  0  0  0  0  0  0  0  0  0  0
   42.6059  -19.0671   40.8535 C   0  0  0  0  0  0  0  0  0  0  0  0
   43.1181  -18.3966   39.6174 C   0  0  0  0  0  0  0  0  0  0  0  0
 17 18  1  0  0  0
 18  1  1  0  0  0
  1  2  2  0  0  0
  2  3  1  0  0  0
  3  4  2  0  0  0
  4 19  1  0  0  0
 19 21  1  0  0  0
 21 22  1  0  0  0
 22 23  1  0  0  0
 23 24  1  0  0  0
 24 25  1  0  0  0
 25 26  1  0  0  0
 24 27  1  0  0  0
 27 28  1  0  0  0
 27 29  1  0  0  0
  4  5  1  0  0  0
  5  6  2  0  0  0
  6  7  1  0  0  0
  7  8  2  0  0  0
  8  9  1  0  0  0
  9 10  2  0  0  0
 10 30  1  0  0  0
 30 31  1  0  0  0
 31 32  1  0  0  0
 32 33  1  0  0  0
 33 34  1  0  0  0
 34 35  1  0  0  0
 35 36  1  0  0  0
 36 37  1  0  0  0
 37 38  1  0  0  0
  6 11  1  0  0  0
 11 12  2  0  0  0
 12 13  1  0  0  0
 13 14  2  0  0  0
 14 15  1  0  0  0
 14 16  1  0  0  0
 10  1  1  0  0  0
 38 34  1  0  0  0
 16 11  1  0  0  0
  8  3  1  0  0  0
 26 21  1  0  0  0
 19 20  1  0  0  0
M  END
> <minimizedAffinity>
-7.12158

> <CNNscore>
0.3563142717

> <CNNaffinity>
6.3493819237

> <CNN_VS>
2.2623753548

> <CNNaffinity_variance>
0.1033749357

$$$$
[H]c1c(-c2nc3c([H])c(OC([H])([H])C([H])([H])C([H])([H])N4C([H])([H])C([H])([H])C([H])([H])C4([H])[H])c(OC([H])([H])[H])c([H])c3c(N([H])C3([H])C([H])([H])C([H])([H])N(C([H])(C([H])([H])[H])C([H])([H])[H])C([H])([H])C3([H])[H])c2[H])oc(C([H])([H])[H])c1[H]


 38 42  0  0  0  0  0  0  0  0999 V2000
   38.0910  -20.7324   36.2125 C   0  0  0  0  0  0  0  0  0  0  0  0
   36.7898  -20.3551   36.0140 C   0  0  0  0  0  0  0  0  0  0  0  0
   36.4042  -19.0667   36.1646 C   0  0  0  0  0  0  0  0  0  0  0  0
   35.0922  -18.6552   35.9495 C   0  0  0  0  0  0  0  0  0  0  0  0
   34.8183  -17.3128   36.1096 C   0  0  0  0  0  0  0  0  0  0  0  0
   35.7628  -16.3775   36.4692 C   0  0  0  0  0  0  0  0  0  0  0  0
   37.0036  -16.8342   36.6630 N   0  0  0  0  0  0  0  0  0  0  0  0
   37.3504  -18.1291   36.5239 C   0  0  0  0  0  0  0  0  0  0  0  0
   38.6820  -18.5106   36.7279 C   0  0  0  0  0  0  0  0  0  0  0  0
   39.0948  -19.8125   36.5797 C   0  0  0  0  0  0  0  0  0  0  0  0
   35.3849  -14.9809   36.6534 C   0  0  0  0  0  0  0  0  0  0  0  0
   36.1495  -13.9112   36.2312 C   0  0  0  0  0  0  0  0  0  0  0  0
   35.4639  -12.7437   36.5869 C   0  0  0  0  0  0  0  0  0  0  0  0
   34.3188  -13.1763   37.2072 C   0  0  0  0  0  0  0  0  0  0  0  0
   33.2565  -12.3064   37.7703 C   0  0  0  0  0  0  0  0  0  0  0  0
   34.3113  -14.4964   37.2245 O   0  0  0  0  0  0  0  0  0  0  0  0
   38.9071  -22.5029   34.7803 C   0  0  0  0  0  0  0  0  0  0  0  0
   38.4203  -22.0743   36.0396 O   0  0  0  0  0  0  0  0  0  0  0  0
   34.0907  -19.6115   35.6725 N   0  0  0  0  0  0  0  0  0  0  0  0
   34.0370  -20.5040   36.2259 H   0  0  0  0  0  0  0  0  0  0  0  0
   33.0954  -19.3872   34.6382 C   0  0  0  0  0  0  0  0  0  0  0  0
   31.8966  -18.7351   35.2608 C   0  0  0  0  0  0  0  0  0  0  0  0
   30.6693  -19.5364   34.8956 C   0  0  0  0  0  0  0  0  0  0  0  0
   30.7923  -20.8251   35.5323 N   0  0  0  0  0  0  0  0  0  0  0  0
   31.9381  -21.5530   35.0306 C   0  0  0  0  0  0  0  0  0  0  0  0
   32.7126  -20.7325   34.0206 C   0  0  0  0  0  0  0  0  0  0  0  0
   29.6135  -21.6091   35.6097 C   0  0  0  0  0  0  0  0  0  0  0  0
   28.6477  -21.1862   36.6824 C   0  0  0  0  0  0  0  0  0  0  0  0
   29.9622  -23.0606   35.8075 C   0  0  0  0  0  0  0  0  0  0  0  0
   40.2890  -20.2477   36.7433 O   0  0  0  0  0  0  0  0  0  0  0  0
   41.4894  -20.6871   36.9120 C   0  0  0  0  0  0  0  0  0  0  0  0
   42.4950  -20.6859   35.7668 C   0  0  0  0  0  0  0  0  0  0  0  0
   43.4772  -19.5887   35.9892 C   0  0  0  0  0  0  0  0  0  0  0  0
   42.8477  -18.3096   36.2760 N   0  0  0  0  0  0  0  0  0  0  0  0
   42.6908  -17.5283   35.0709 C   0  0  0  0  0  0  0  0  0  0  0  0
   43.6623  -16.3852   35.1052 C   0  0  0  0  0  0  0  0  0  0  0  0
   44.2374  -16.4188   36.5039 C   0  0  0  0  0  0  0  0  0  0  0  0
   43.5278  -17.5152   37.2349 C   0  0  0  0  0  0  0  0  0  0  0  0
 17 18  1  0  0  0
 18  1  1  0  0  0
  1  2  2  0  0  0
  2  3  1  0  0  0
  3  4  2  0  0  0
  4 19  1  0  0  0
 19 21  1  0  0  0
 21 22  1  0  0  0
 22 23  1  0  0  0
 23 24  1  0  0  0
 24 25  1  0  0  0
 25 26  1  0  0  0
 24 27  1  0  0  0
 27 28  1  0  0  0
 27 29  1  0  0  0
  4  5  1  0  0  0
  5  6  2  0  0  0
  6  7  1  0  0  0
  7  8  2  0  0  0
  8  9  1  0  0  0
  9 10  2  0  0  0
 10 30  1  0  0  0
 30 31  1  0  0  0
 31 32  1  0  0  0
 32 33  1  0  0  0
 33 34  1  0  0  0
 34 35  1  0  0  0
 35 36  1  0  0  0
 36 37  1  0  0  0
 37 38  1  0  0  0
  6 11  1  0  0  0
 11 12  2  0  0  0
 12 13  1  0  0  0
 13 14  2  0  0  0
 14 15  1  0  0  0
 14 16  1  0  0  0
 10  1  1  0  0  0
 38 34  1  0  0  0
 16 11  1  0  0  0
  8  3  1  0  0  0
 26 21  1  0  0  0
 19 20  1  0  0  0
M  END
> <minimizedAffinity>
-7.02819

> <CNNscore>
0.3167355359

> <CNNaffinity>
6.5195784569

> <CNN_VS>
2.0649821758

> <CNNaffinity_variance>
0.1581645459

$$$$
[H]c1c(-c2nc3c([H])c(OC([H])([H])C([H])([H])C([H])([H])N4C([H])([H])C([H])([H])C([H])([H])C4([H])[H])c(OC([H])([H])[H])c([H])c3c(N([H])C3([H])C([H])([H])C([H])([H])N(C([H])(C([H])([H])[H])C([H])([H])[H])C([H])([H])C3([H])[H])c2[H])oc(C([H])([H])[H])c1[H]


 38 42  0  0  0  0  0  0  0  0999 V2000
   36.3131  -22.1158   37.6449 C   0  0  0  0  0  0  0  0  0  0  0  0
   37.1343  -21.2760   36.9411 C   0  0  0  0  0  0  0  0  0  0  0  0
   36.9661  -19.9340   36.9850 C   0  0  0  0  0  0  0  0  0  0  0  0
   37.7995  -19.0591   36.2944 C   0  0  0  0  0  0  0  0  0  0  0  0
   37.5489  -17.7096   36.4312 C   0  0  0  0  0  0  0  0  0  0  0  0
   36.5296  -17.1956   37.2012 C   0  0  0  0  0  0  0  0  0  0  0  0
   35.7631  -18.0857   37.8383 N   0  0  0  0  0  0  0  0  0  0  0  0
   35.9456  -19.4185   37.7572 C   0  0  0  0  0  0  0  0  0  0  0  0
   35.1034  -20.2736   38.4784 C   0  0  0  0  0  0  0  0  0  0  0  0
   35.2571  -21.6385   38.4484 C   0  0  0  0  0  0  0  0  0  0  0  0
   36.3077  -15.7555   37.2651 C   0  0  0  0  0  0  0  0  0  0  0  0
   37.2962  -14.8330   37.5460 C   0  0  0  0  0  0  0  0  0  0  0  0
   36.7019  -13.5658   37.5212 C   0  0  0  0  0  0  0  0  0  0  0  0
   35.3817  -13.7958   37.2258 C   0  0  0  0  0  0  0  0  0  0  0  0
   34.3306  -12.7572   37.0885 C   0  0  0  0  0  0  0  0  0  0  0  0
   35.1927  -15.0945   37.0825 O   0  0  0  0  0  0  0  0  0  0  0  0
   37.5283  -23.9587   36.6558 C   0  0  0  0  0  0  0  0  0  0  0  0
   36.5423  -23.4864   37.5564 O   0  0  0  0  0  0  0  0  0  0  0  0
   38.7902  -19.5680   35.4261 N   0  0  0  0  0  0  0  0  0  0  0  0
   38.6334  -19.5808   34.3864 H   0  0  0  0  0  0  0  0  0  0  0  0
   40.0576  -20.0657   35.9327 C   0  0  0  0  0  0  0  0  0  0  0  0
   40.5449  -19.1335   37.0020 C   0  0  0  0  0  0  0  0  0  0  0  0
   41.9596  -18.7199   36.6713 C   0  0  0  0  0  0  0  0  0  0  0  0
   41.9067  -17.9376   35.4603 N   0  0  0  0  0  0  0  0  0  0  0  0
   41.4239  -18.7245   34.3458 C   0  0  0  0  0  0  0  0  0  0  0  0
   41.0601  -20.1289   34.7800 C   0  0  0  0  0  0  0  0  0  0  0  0
   43.0561  -17.1666   35.1528 C   0  0  0  0  0  0  0  0  0  0  0  0
   44.2241  -17.9602   34.6349 C   0  0  0  0  0  0  0  0  0  0  0  0
   43.4946  -16.3770   36.3577 C   0  0  0  0  0  0  0  0  0  0  0  0
   34.5366  -22.4919   39.0770 O   0  0  0  0  0  0  0  0  0  0  0  0
   33.8154  -23.3532   39.7097 C   0  0  0  0  0  0  0  0  0  0  0  0
   33.7421  -23.3498   41.2320 C   0  0  0  0  0  0  0  0  0  0  0  0
   33.0404  -22.1142   41.6780 C   0  0  0  0  0  0  0  0  0  0  0  0
   33.7684  -21.3839   42.7033 N   0  0  0  0  0  0  0  0  0  0  0  0
   32.9184  -20.4083   43.3459 C   0  0  0  0  0  0  0  0  0  0  0  0
   33.3400  -19.0361   42.9085 C   0  0  0  0  0  0  0  0  0  0  0  0
   34.6289  -19.2601   42.1491 C   0  0  0  0  0  0  0  0  0  0  0  0
   34.9362  -20.7217   42.2442 C   0  0  0  0  0  0  0  0  0  0  0  0
 17 18  1  0  0  0
 18  1  1  0  0  0
  1  2  2  0  0  0
  2  3  1  0  0  0
  3  4  2  0  0  0
  4 19  1  0  0  0
 19 21  1  0  0  0
 21 22  1  0  0  0
 22 23  1  0  0  0
 23 24  1  0  0  0
 24 25  1  0  0  0
 25 26  1  0  0  0
 24 27  1  0  0  0
 27 28  1  0  0  0
 27 29  1  0  0  0
  4  5  1  0  0  0
  5  6  2  0  0  0
  6  7  1  0  0  0
  7  8  2  0  0  0
  8  9  1  0  0  0
  9 10  2  0  0  0
 10 30  1  0  0  0
 30 31  1  0  0  0
 31 32  1  0  0  0
 32 33  1  0  0  0
 33 34  1  0  0  0
 34 35  1  0  0  0
 35 36  1  0  0  0
 36 37  1  0  0  0
 37 38  1  0  0  0
  6 11  1  0  0  0
 11 12  2  0  0  0
 12 13  1  0  0  0
 13 14  2  0  0  0
 14 15  1  0  0  0
 14 16  1  0  0  0
 10  1  1  0  0  0
 38 34  1  0  0  0
 16 11  1  0  0  0
  8  3  1  0  0  0
 26 21  1  0  0  0
 19 20  1  0  0  0
M  END
> <minimizedAffinity>
-6.09028

> <CNNscore>
0.2963655591

> <CNNaffinity>
6.0528364182

> <CNN_VS>
1.7938522100

> <CNNaffinity_variance>
0.3111371398

$$$$
[H]c1c(-c2c([H])c([H])c(C([H])([H])[H])n2[H])nc2c([H])c(OC([H])([H])C([H])([H])C([H])([H])N3C([H])([H])C([H])([H])C([H])([H])C3([H])[H])c(OC([H])([H])[H])c([H])c2c1N([H])C1([H])C([H])([H])C([H])([H])N(C([H])([H])[H])C([H])([H])C1([H])[H]


 37 41  0  0  0  0  0  0  0  0999 V2000
   36.1583  -14.0089   36.6057 C   0  0  0  0  0  0  0  0  0  0  0  0
   36.5741  -15.2773   36.1873 C   0  0  0  0  0  0  0  0  0  0  0  0
   35.7045  -16.2983   35.8923 C   0  0  0  0  0  0  0  0  0  0  0  0
   36.1190  -17.5554   35.4877 C   0  0  0  0  0  0  0  0  0  0  0  0
   35.1427  -18.5028   35.2290 C   0  0  0  0  0  0  0  0  0  0  0  0
   33.8049  -18.2238   35.3636 C   0  0  0  0  0  0  0  0  0  0  0  0
   33.4762  -16.9895   35.7572 N   0  0  0  0  0  0  0  0  0  0  0  0
   34.3439  -16.0045   36.0317 C   0  0  0  0  0  0  0  0  0  0  0  0
   33.9104  -14.7533   36.4452 C   0  0  0  0  0  0  0  0  0  0  0  0
   34.8113  -13.7536   36.7336 C   0  0  0  0  0  0  0  0  0  0  0  0
   32.7915  -19.2587   35.0761 C   0  0  0  0  0  0  0  0  0  0  0  0
   32.9414  -20.3066   34.2046 C   0  0  0  0  0  0  0  0  0  0  0  0
   31.7630  -21.0608   34.2134 C   0  0  0  0  0  0  0  0  0  0  0  0
   30.9160  -20.4441   35.1013 C   0  0  0  0  0  0  0  0  0  0  0  0
   29.5225  -20.8770   35.4617 C   0  0  0  0  0  0  0  0  0  0  0  0
   31.5658  -19.3705   35.5972 N   0  0  0  0  0  0  0  0  0  0  0  0
   31.1925  -18.6978   36.2934 H   0  0  0  0  0  0  0  0  0  0  0  0
   38.2681  -13.3371   37.5640 C   0  0  0  0  0  0  0  0  0  0  0  0
   37.0722  -13.0055   36.8942 O   0  0  0  0  0  0  0  0  0  0  0  0
   37.4853  -17.8326   35.3437 N   0  0  0  0  0  0  0  0  0  0  0  0
   38.1250  -17.1589   34.9164 H   0  0  0  0  0  0  0  0  0  0  0  0
   38.0826  -19.0972   35.7862 C   0  0  0  0  0  0  0  0  0  0  0  0
   38.2326  -20.0503   34.6049 C   0  0  0  0  0  0  0  0  0  0  0  0
   39.0852  -19.4357   33.5189 C   0  0  0  0  0  0  0  0  0  0  0  0
   40.2187  -18.7340   34.0837 N   0  0  0  0  0  0  0  0  0  0  0  0
   41.4094  -18.8849   33.2620 C   0  0  0  0  0  0  0  0  0  0  0  0
   40.5053  -19.3085   35.3859 C   0  0  0  0  0  0  0  0  0  0  0  0
   39.4758  -18.8393   36.3574 C   0  0  0  0  0  0  0  0  0  0  0  0
   34.4128  -12.5003   37.1489 O   0  0  0  0  0  0  0  0  0  0  0  0
   33.4630  -12.2130   38.1320 C   0  0  0  0  0  0  0  0  0  0  0  0
   32.4378  -11.1991   37.6185 C   0  0  0  0  0  0  0  0  0  0  0  0
   31.1768  -11.9524   37.2822 C   0  0  0  0  0  0  0  0  0  0  0  0
   30.0765  -11.0067   37.2229 N   0  0  0  0  0  0  0  0  0  0  0  0
   28.9334  -11.5431   37.8853 C   0  0  0  0  0  0  0  0  0  0  0  0
   28.8031  -10.7806   39.1708 C   0  0  0  0  0  0  0  0  0  0  0  0
   29.2803   -9.3905   38.7401 C   0  0  0  0  0  0  0  0  0  0  0  0
   30.4066   -9.7262   37.7512 C   0  0  0  0  0  0  0  0  0  0  0  0
 18 19  1  0  0  0
 19  1  1  0  0  0
  1  2  2  0  0  0
  2  3  1  0  0  0
  3  4  2  0  0  0
  4 20  1  0  0  0
 20 22  1  0  0  0
 22 23  1  0  0  0
 23 24  1  0  0  0
 24 25  1  0  0  0
 25 26  1  0  0  0
 25 27  1  0  0  0
 27 28  1  0  0  0
  4  5  1  0  0  0
  5  6  2  0  0  0
  6  7  1  0  0  0
  7  8  2  0  0  0
  8  9  1  0  0  0
  9 10  2  0  0  0
 10 29  1  0  0  0
 29 30  1  0  0  0
 30 31  1  0  0  0
 31 32  1  0  0  0
 32 33  1  0  0  0
 33 34  1  0  0  0
 34 35  1  0  0  0
 35 36  1  0  0  0
 36 37  1  0  0  0
  6 11  1  0  0  0
 11 12  2  0  0  0
 12 13  1  0  0  0
 13 14  2  0  0  0
 14 15  1  0  0  0
 14 16  1  0  0  0
 10  1  1  0  0  0
 37 33  1  0  0  0
 16 11  1  0  0  0
  8  3  1  0  0  0
 28 22  1  0  0  0
 20 21  1  0  0  0
 16 17  1  0  0  0
M  END
> <minimizedAffinity>
-8.72736

> <CNNscore>
0.8874089122

> <CNNaffinity>
7.3953619003

> <CNN_VS>
6.5627102852

> <CNNaffinity_variance>
0.1473863423

$$$$
[H]c1c(-c2c([H])c([H])c(C([H])([H])[H])n2[H])nc2c([H])c(OC([H])([H])C([H])([H])C([H])([H])N3C([H])([H])C([H])([H])C([H])([H])C3([H])[H])c(OC([H])([H])[H])c([H])c2c1N([H])C1([H])C([H])([H])C([H])([H])N(C([H])([H])[H])C([H])([H])C1([H])[H]


 37 41  0  0  0  0  0  0  0  0999 V2000
   36.0837  -14.3254   36.5399 C   0  0  0  0  0  0  0  0  0  0  0  0
   36.4731  -15.6681   36.4927 C   0  0  0  0  0  0  0  0  0  0  0  0
   35.6078  -16.6963   36.2103 C   0  0  0  0  0  0  0  0  0  0  0  0
   35.9939  -18.0250   36.1737 C   0  0  0  0  0  0  0  0  0  0  0  0
   35.0230  -18.9697   35.8859 C   0  0  0  0  0  0  0  0  0  0  0  0
   33.7176  -18.6200   35.6427 C   0  0  0  0  0  0  0  0  0  0  0  0
   33.4154  -17.3189   35.6936 N   0  0  0  0  0  0  0  0  0  0  0  0
   34.2804  -16.3302   35.9632 C   0  0  0  0  0  0  0  0  0  0  0  0
   33.8734  -15.0048   36.0050 C   0  0  0  0  0  0  0  0  0  0  0  0
   34.7688  -13.9999   36.2928 C   0  0  0  0  0  0  0  0  0  0  0  0
   32.7098  -19.6548   35.3363 C   0  0  0  0  0  0  0  0  0  0  0  0
   32.9128  -20.7653   34.5579 C   0  0  0  0  0  0  0  0  0  0  0  0
   31.7206  -21.4960   34.5109 C   0  0  0  0  0  0  0  0  0  0  0  0
   30.8117  -20.8021   35.2715 C   0  0  0  0  0  0  0  0  0  0  0  0
   29.3812  -21.1833   35.5313 C   0  0  0  0  0  0  0  0  0  0  0  0
   31.4396  -19.7072   35.7487 N   0  0  0  0  0  0  0  0  0  0  0  0
   31.0210  -18.9797   36.3586 H   0  0  0  0  0  0  0  0  0  0  0  0
   38.0574  -13.5861   37.7142 C   0  0  0  0  0  0  0  0  0  0  0  0
   36.9921  -13.3174   36.8300 O   0  0  0  0  0  0  0  0  0  0  0  0
   37.3293  -18.3761   36.4144 N   0  0  0  0  0  0  0  0  0  0  0  0
   37.6676  -18.5747   37.3587 H   0  0  0  0  0  0  0  0  0  0  0  0
   38.3228  -18.4754   35.3397 C   0  0  0  0  0  0  0  0  0  0  0  0
   39.6259  -19.0555   35.8797 C   0  0  0  0  0  0  0  0  0  0  0  0
   39.3986  -20.4185   36.4919 C   0  0  0  0  0  0  0  0  0  0  0  0
   38.4880  -21.2042   35.6859 N   0  0  0  0  0  0  0  0  0  0  0  0
   38.8643  -22.6089   35.6628 C   0  0  0  0  0  0  0  0  0  0  0  0
   38.5460  -20.7090   34.3224 C   0  0  0  0  0  0  0  0  0  0  0  0
   37.8114  -19.4134   34.2477 C   0  0  0  0  0  0  0  0  0  0  0  0
   34.3957  -12.6733   36.3441 O   0  0  0  0  0  0  0  0  0  0  0  0
   33.9000  -11.9913   37.4579 C   0  0  0  0  0  0  0  0  0  0  0  0
   32.6626  -12.6946   38.0205 C   0  0  0  0  0  0  0  0  0  0  0  0
   31.4532  -12.1128   37.3352 C   0  0  0  0  0  0  0  0  0  0  0  0
   30.5425  -11.6150   38.3506 N   0  0  0  0  0  0  0  0  0  0  0  0
   29.6524  -10.6566   37.7827 C   0  0  0  0  0  0  0  0  0  0  0  0
   28.3165  -11.3335   37.6926 C   0  0  0  0  0  0  0  0  0  0  0  0
   28.3431  -12.2094   38.9486 C   0  0  0  0  0  0  0  0  0  0  0  0
   29.8141  -12.6475   39.0075 C   0  0  0  0  0  0  0  0  0  0  0  0
 18 19  1  0  0  0
 19  1  1  0  0  0
  1  2  2  0  0  0
  2  3  1  0  0  0
  3  4  2  0  0  0
  4 20  1  0  0  0
 20 22  1  0  0  0
 22 23  1  0  0  0
 23 24  1  0  0  0
 24 25  1  0  0  0
 25 26  1  0  0  0
 25 27  1  0  0  0
 27 28  1  0  0  0
  4  5  1  0  0  0
  5  6  2  0  0  0
  6  7  1  0  0  0
  7  8  2  0  0  0
  8  9  1  0  0  0
  9 10  2  0  0  0
 10 29  1  0  0  0
 29 30  1  0  0  0
 30 31  1  0  0  0
 31 32  1  0  0  0
 32 33  1  0  0  0
 33 34  1  0  0  0
 34 35  1  0  0  0
 35 36  1  0  0  0
 36 37  1  0  0  0
  6 11  1  0  0  0
 11 12  2  0  0  0
 12 13  1  0  0  0
 13 14  2  0  0  0
 14 15  1  0  0  0
 14 16  1  0  0  0
 10  1  1  0  0  0
 37 33  1  0  0  0
 16 11  1  0  0  0
  8  3  1  0  0  0
 28 22  1  0  0  0
 20 21  1  0  0  0
 16 17  1  0  0  0
M  END
> <minimizedAffinity>
-8.23052

> <CNNscore>
0.6751515269

> <CNNaffinity>
7.0792551041

> <CNN_VS>
4.7795701027

> <CNNaffinity_variance>
0.1770206690

$$$$
[H]c1c(-c2c([H])c([H])c(C([H])([H])[H])n2[H])nc2c([H])c(OC([H])([H])C([H])([H])C([H])([H])N3C([H])([H])C([H])([H])C([H])([H])C3([H])[H])c(OC([H])([H])[H])c([H])c2c1N([H])C1([H])C([H])([H])C([H])([H])N(C([H])([H])[H])C([H])([H])C1([H])[H]


 37 41  0  0  0  0  0  0  0  0999 V2000
   36.1153  -14.5851   36.3207 C   0  0  0  0  0  0  0  0  0  0  0  0
   36.7064  -15.8320   36.0913 C   0  0  0  0  0  0  0  0  0  0  0  0
   35.9867  -16.9785   35.8609 C   0  0  0  0  0  0  0  0  0  0  0  0
   36.5741  -18.2128   35.6438 C   0  0  0  0  0  0  0  0  0  0  0  0
   35.7372  -19.2958   35.4326 C   0  0  0  0  0  0  0  0  0  0  0  0
   34.3699  -19.1695   35.4351 C   0  0  0  0  0  0  0  0  0  0  0  0
   33.8709  -17.9483   35.6504 N   0  0  0  0  0  0  0  0  0  0  0  0
   34.5946  -16.8398   35.8647 C   0  0  0  0  0  0  0  0  0  0  0  0
   33.9883  -15.6127   36.0901 C   0  0  0  0  0  0  0  0  0  0  0  0
   34.7421  -14.4840   36.3188 C   0  0  0  0  0  0  0  0  0  0  0  0
   33.5087  -20.3464   35.2035 C   0  0  0  0  0  0  0  0  0  0  0  0
   32.6440  -20.5121   34.1523 C   0  0  0  0  0  0  0  0  0  0  0  0
   32.0146  -21.7541   34.2893 C   0  0  0  0  0  0  0  0  0  0  0  0
   32.5192  -22.3189   35.4349 C   0  0  0  0  0  0  0  0  0  0  0  0
   32.1546  -23.6581   36.0117 C   0  0  0  0  0  0  0  0  0  0  0  0
   33.4097  -21.4480   35.9539 N   0  0  0  0  0  0  0  0  0  0  0  0
   33.9629  -21.5834   36.8211 H   0  0  0  0  0  0  0  0  0  0  0  0
   37.8637  -13.4787   37.5615 C   0  0  0  0  0  0  0  0  0  0  0  0
   36.8815  -13.4513   36.5499 O   0  0  0  0  0  0  0  0  0  0  0  0
   37.9703  -18.3351   35.6337 N   0  0  0  0  0  0  0  0  0  0  0  0
   38.5753  -17.5348   35.4354 H   0  0  0  0  0  0  0  0  0  0  0  0
   38.6508  -19.6073   35.8986 C   0  0  0  0  0  0  0  0  0  0  0  0
   39.0496  -20.2741   34.5861 C   0  0  0  0  0  0  0  0  0  0  0  0
   39.9507  -19.3730   33.7735 C   0  0  0  0  0  0  0  0  0  0  0  0
   40.9203  -18.7093   34.6194 N   0  0  0  0  0  0  0  0  0  0  0  0
   42.2104  -18.5796   33.9604 C   0  0  0  0  0  0  0  0  0  0  0  0
   41.1121  -19.5172   35.8103 C   0  0  0  0  0  0  0  0  0  0  0  0
   39.9266  -19.3543   36.7001 C   0  0  0  0  0  0  0  0  0  0  0  0
   34.1701  -13.2503   36.5482 O   0  0  0  0  0  0  0  0  0  0  0  0
   32.8083  -12.9430   36.4997 C   0  0  0  0  0  0  0  0  0  0  0  0
   32.3787  -12.1749   37.7518 C   0  0  0  0  0  0  0  0  0  0  0  0
   31.5340  -11.0089   37.3071 C   0  0  0  0  0  0  0  0  0  0  0  0
   32.1632   -9.7826   37.7640 N   0  0  0  0  0  0  0  0  0  0  0  0
   33.5817   -9.9270   37.7542 C   0  0  0  0  0  0  0  0  0  0  0  0
   34.0742   -9.1065   36.5987 C   0  0  0  0  0  0  0  0  0  0  0  0
   33.0819   -7.9403   36.6194 C   0  0  0  0  0  0  0  0  0  0  0  0
   31.7712   -8.6367   37.0149 C   0  0  0  0  0  0  0  0  0  0  0  0
 18 19  1  0  0  0
 19  1  1  0  0  0
  1  2  2  0  0  0
  2  3  1  0  0  0
  3  4  2  0  0  0
  4 20  1  0  0  0
 20 22  1  0  0  0
 22 23  1  0  0  0
 23 24  1  0  0  0
 24 25  1  0  0  0
 25 26  1  0  0  0
 25 27  1  0  0  0
 27 28  1  0  0  0
  4  5  1  0  0  0
  5  6  2  0  0  0
  6  7  1  0  0  0
  7  8  2  0  0  0
  8  9  1  0  0  0
  9 10  2  0  0  0
 10 29  1  0  0  0
 29 30  1  0  0  0
 30 31  1  0  0  0
 31 32  1  0  0  0
 32 33  1  0  0  0
 33 34  1  0  0  0
 34 35  1  0  0  0
 35 36  1  0  0  0
 36 37  1  0  0  0
  6 11  1  0  0  0
 11 12  2  0  0  0
 12 13  1  0  0  0
 13 14  2  0  0  0
 14 15  1  0  0  0
 14 16  1  0  0  0
 10  1  1  0  0  0
 37 33  1  0  0  0
 16 11  1  0  0  0
  8  3  1  0  0  0
 28 22  1  0  0  0
 20 21  1  0  0  0
 16 17  1  0  0  0
M  END
> <minimizedAffinity>
-8.11839

> <CNNscore>
0.5804907680

> <CNNaffinity>
7.0754194260

> <CNN_VS>
4.1072158813

> <CNNaffinity_variance>
0.0234455951

$$$$
[H]c1c(-c2c([H])c([H])c(C([H])([H])[H])n2[H])nc2c([H])c(OC([H])([H])C([H])([H])C([H])([H])N3C([H])([H])C([H])([H])C([H])([H])C3([H])[H])c(OC([H])([H])[H])c([H])c2c1N([H])C1([H])C([H])([H])C([H])([H])N(C([H])([H])[H])C([H])([H])C1([H])[H]


 37 41  0  0  0  0  0  0  0  0999 V2000
   32.7294  -20.6648   34.8962 C   0  0  0  0  0  0  0  0  0  0  0  0
   34.0135  -20.1558   35.1167 C   0  0  0  0  0  0  0  0  0  0  0  0
   34.2629  -18.8402   35.4211 C   0  0  0  0  0  0  0  0  0  0  0  0
   35.5354  -18.3373   35.6294 C   0  0  0  0  0  0  0  0  0  0  0  0
   35.6548  -16.9887   35.9206 C   0  0  0  0  0  0  0  0  0  0  0  0
   34.5608  -16.1631   36.0039 C   0  0  0  0  0  0  0  0  0  0  0  0
   33.3624  -16.7159   35.7920 N   0  0  0  0  0  0  0  0  0  0  0  0
   33.1422  -18.0071   35.5044 C   0  0  0  0  0  0  0  0  0  0  0  0
   31.8602  -18.4915   35.2893 C   0  0  0  0  0  0  0  0  0  0  0  0
   31.6481  -19.8169   34.9849 C   0  0  0  0  0  0  0  0  0  0  0  0
   34.7263  -14.7300   36.3193 C   0  0  0  0  0  0  0  0  0  0  0  0
   35.8505  -13.9819   36.0812 C   0  0  0  0  0  0  0  0  0  0  0  0
   35.6123  -12.6746   36.5190 C   0  0  0  0  0  0  0  0  0  0  0  0
   34.3331  -12.6613   37.0186 C   0  0  0  0  0  0  0  0  0  0  0  0
   33.6119  -11.4822   37.6092 C   0  0  0  0  0  0  0  0  0  0  0  0
   33.8352  -13.9080   36.8820 N   0  0  0  0  0  0  0  0  0  0  0  0
   32.8883  -14.2225   37.1662 H   0  0  0  0  0  0  0  0  0  0  0  0
   32.4889  -22.9488   35.6353 C   0  0  0  0  0  0  0  0  0  0  0  0
   32.5229  -22.0024   34.5903 O   0  0  0  0  0  0  0  0  0  0  0  0
   36.6483  -19.1858   35.5516 N   0  0  0  0  0  0  0  0  0  0  0  0
   36.5732  -20.1853   35.7542 H   0  0  0  0  0  0  0  0  0  0  0  0
   37.9831  -18.7013   35.1839 C   0  0  0  0  0  0  0  0  0  0  0  0
   39.0367  -19.3146   36.1005 C   0  0  0  0  0  0  0  0  0  0  0  0
   39.0039  -20.8238   36.0283 C   0  0  0  0  0  0  0  0  0  0  0  0
   38.8214  -21.2744   34.6645 N   0  0  0  0  0  0  0  0  0  0  0  0
   39.5864  -22.4803   34.3888 C   0  0  0  0  0  0  0  0  0  0  0  0
   39.3023  -20.2332   33.7743 C   0  0  0  0  0  0  0  0  0  0  0  0
   38.3092  -19.1209   33.7516 C   0  0  0  0  0  0  0  0  0  0  0  0
   30.3870  -20.3291   34.7633 O   0  0  0  0  0  0  0  0  0  0  0  0
   29.3782  -20.4962   35.7151 C   0  0  0  0  0  0  0  0  0  0  0  0
   28.8340  -21.9264   35.6859 C   0  0  0  0  0  0  0  0  0  0  0  0
   29.0801  -22.5384   37.0408 C   0  0  0  0  0  0  0  0  0  0  0  0
   28.7192  -23.9437   36.9845 N   0  0  0  0  0  0  0  0  0  0  0  0
   28.4020  -24.3147   35.6448 C   0  0  0  0  0  0  0  0  0  0  0  0
   29.5505  -25.1511   35.1630 C   0  0  0  0  0  0  0  0  0  0  0  0
   29.9435  -25.8835   36.4492 C   0  0  0  0  0  0  0  0  0  0  0  0
   29.7213  -24.8033   37.5184 C   0  0  0  0  0  0  0  0  0  0  0  0
 18 19  1  0  0  0
 19  1  1  0  0  0
  1  2  2  0  0  0
  2  3  1  0  0  0
  3  4  2  0  0  0
  4 20  1  0  0  0
 20 22  1  0  0  0
 22 23  1  0  0  0
 23 24  1  0  0  0
 24 25  1  0  0  0
 25 26  1  0  0  0
 25 27  1  0  0  0
 27 28  1  0  0  0
  4  5  1  0  0  0
  5  6  2  0  0  0
  6  7  1  0  0  0
  7  8  2  0  0  0
  8  9  1  0  0  0
  9 10  2  0  0  0
 10 29  1  0  0  0
 29 30  1  0  0  0
 30 31  1  0  0  0
 31 32  1  0  0  0
 32 33  1  0  0  0
 33 34  1  0  0  0
 34 35  1  0  0  0
 35 36  1  0  0  0
 36 37  1  0  0  0
  6 11  1  0  0  0
 11 12  2  0  0  0
 12 13  1  0  0  0
 13 14  2  0  0  0
 14 15  1  0  0  0
 14 16  1  0  0  0
 10  1  1  0  0  0
 37 33  1  0  0  0
 16 11  1  0  0  0
  8  3  1  0  0  0
 28 22  1  0  0  0
 20 21  1  0  0  0
 16 17  1  0  0  0
M  END
> <minimizedAffinity>
-6.67038

> <CNNscore>
0.4960009754

> <CNNaffinity>
6.3334383965

> <CNN_VS>
3.1413915157

> <CNNaffinity_variance>
0.2954331040

$$$$
[H]c1c(-c2c([H])c([H])c(C([H])([H])[H])n2[H])nc2c([H])c(OC([H])([H])C([H])([H])C([H])([H])N3C([H])([H])C([H])([H])C([H])([H])C3([H])[H])c(OC([H])([H])[H])c([H])c2c1N([H])C1([H])C([H])([H])C([H])([H])N(C([H])([H])[H])C([H])([H])C1([H])[H]


 37 41  0  0  0  0  0  0  0  0999 V2000
   38.0512  -19.8042   35.8158 C   0  0  0  0  0  0  0  0  0  0  0  0
   36.7348  -19.5010   35.4529 C   0  0  0  0  0  0  0  0  0  0  0  0
   36.1388  -18.2915   35.7127 C   0  0  0  0  0  0  0  0  0  0  0  0
   34.8328  -17.9977   35.3611 C   0  0  0  0  0  0  0  0  0  0  0  0
   34.3447  -16.7436   35.6880 C   0  0  0  0  0  0  0  0  0  0  0  0
   35.1143  -15.8107   36.3384 C   0  0  0  0  0  0  0  0  0  0  0  0
   36.3666  -16.1616   36.6471 N   0  0  0  0  0  0  0  0  0  0  0  0
   36.9307  -17.3474   36.3751 C   0  0  0  0  0  0  0  0  0  0  0  0
   38.2383  -17.6277   36.7438 C   0  0  0  0  0  0  0  0  0  0  0  0
   38.8028  -18.8522   36.4677 C   0  0  0  0  0  0  0  0  0  0  0  0
   34.5608  -14.4821   36.6686 C   0  0  0  0  0  0  0  0  0  0  0  0
   35.2858  -13.3290   36.8272 C   0  0  0  0  0  0  0  0  0  0  0  0
   34.4010  -12.2892   37.1327 C   0  0  0  0  0  0  0  0  0  0  0  0
   33.1448  -12.8437   37.1522 C   0  0  0  0  0  0  0  0  0  0  0  0
   31.8523  -12.1299   37.4336 C   0  0  0  0  0  0  0  0  0  0  0  0
   33.2804  -14.1563   36.8700 N   0  0  0  0  0  0  0  0  0  0  0  0
   32.5121  -14.8510   36.8096 H   0  0  0  0  0  0  0  0  0  0  0  0
   39.0181  -21.3265   34.2132 C   0  0  0  0  0  0  0  0  0  0  0  0
   38.6141  -21.0407   35.5337 O   0  0  0  0  0  0  0  0  0  0  0  0
   34.0541  -18.9502   34.6897 N   0  0  0  0  0  0  0  0  0  0  0  0
   34.4819  -19.6946   34.1342 H   0  0  0  0  0  0  0  0  0  0  0  0
   32.5879  -18.9402   34.7332 C   0  0  0  0  0  0  0  0  0  0  0  0
   32.0242  -19.9168   33.7062 C   0  0  0  0  0  0  0  0  0  0  0  0
   32.5324  -21.3179   33.9563 C   0  0  0  0  0  0  0  0  0  0  0  0
   32.5454  -21.6203   35.3721 N   0  0  0  0  0  0  0  0  0  0  0  0
   32.1765  -23.0033   35.6308 C   0  0  0  0  0  0  0  0  0  0  0  0
   31.5654  -20.7722   36.0264 C   0  0  0  0  0  0  0  0  0  0  0  0
   32.1083  -19.3860   36.1135 C   0  0  0  0  0  0  0  0  0  0  0  0
   40.0987  -19.1627   36.8227 O   0  0  0  0  0  0  0  0  0  0  0  0
   41.2608  -18.7705   36.1541 C   0  0  0  0  0  0  0  0  0  0  0  0
   42.3671  -18.4132   37.1495 C   0  0  0  0  0  0  0  0  0  0  0  0
   42.8950  -19.6999   37.7296 C   0  0  0  0  0  0  0  0  0  0  0  0
   43.7517  -19.3801   38.8576 N   0  0  0  0  0  0  0  0  0  0  0  0
   43.1307  -18.3948   39.6803 C   0  0  0  0  0  0  0  0  0  0  0  0
   42.6849  -19.1113   40.9208 C   0  0  0  0  0  0  0  0  0  0  0  0
   43.8047  -20.1429   41.0855 C   0  0  0  0  0  0  0  0  0  0  0  0
   44.1145  -20.5207   39.6292 C   0  0  0  0  0  0  0  0  0  0  0  0
 18 19  1  0  0  0
 19  1  1  0  0  0
  1  2  2  0  0  0
  2  3  1  0  0  0
  3  4  2  0  0  0
  4 20  1  0  0  0
 20 22  1  0  0  0
 22 23  1  0  0  0
 23 24  1  0  0  0
 24 25  1  0  0  0
 25 26  1  0  0  0
 25 27  1  0  0  0
 27 28  1  0  0  0
  4  5  1  0  0  0
  5  6  2  0  0  0
  6  7  1  0  0  0
  7  8  2  0  0  0
  8  9  1  0  0  0
  9 10  2  0  0  0
 10 29  1  0  0  0
 29 30  1  0  0  0
 30 31  1  0  0  0
 31 32  1  0  0  0
 32 33  1  0  0  0
 33 34  1  0  0  0
 34 35  1  0  0  0
 35 36  1  0  0  0
 36 37  1  0  0  0
  6 11  1  0  0  0
 11 12  2  0  0  0
 12 13  1  0  0  0
 13 14  2  0  0  0
 14 15  1  0  0  0
 14 16  1  0  0  0
 10  1  1  0  0  0
 37 33  1  0  0  0
 16 11  1  0  0  0
  8  3  1  0  0  0
 28 22  1  0  0  0
 20 21  1  0  0  0
 16 17  1  0  0  0
M  END
> <minimizedAffinity>
-6.97339

> <CNNscore>
0.4611968696

> <CNNaffinity>
6.4704680443

> <CNN_VS>
2.9841597080

> <CNNaffinity_variance>
0.0431122407

$$$$
[H]c1c(-c2c([H])c([H])c(C([H])([H])[H])n2[H])nc2c([H])c(OC([H])([H])C([H])([H])C([H])([H])N3C([H])([H])C([H])([H])C([H])([H])C3([H])[H])c(OC([H])([H])[H])c([H])c2c1N([H])C1([H])C([H])([H])C([H])([H])N(C([H])([H])[H])C([H])([H])C1([H])[H]


 37 41  0  0  0  0  0  0  0  0999 V2000
   35.0424  -22.8028   37.1497 C   0  0  0  0  0  0  0  0  0  0  0  0
   36.2612  -22.1343   36.9936 C   0  0  0  0  0  0  0  0  0  0  0  0
   36.3755  -20.7660   36.9742 C   0  0  0  0  0  0  0  0  0  0  0  0
   37.5817  -20.1073   36.8100 C   0  0  0  0  0  0  0  0  0  0  0  0
   37.5625  -18.7226   36.7985 C   0  0  0  0  0  0  0  0  0  0  0  0
   36.3975  -18.0103   36.9432 C   0  0  0  0  0  0  0  0  0  0  0  0
   35.2698  -18.7109   37.0983 N   0  0  0  0  0  0  0  0  0  0  0  0
   35.1836  -20.0490   37.1230 C   0  0  0  0  0  0  0  0  0  0  0  0
   33.9645  -20.6922   37.2789 C   0  0  0  0  0  0  0  0  0  0  0  0
   33.8877  -22.0663   37.2926 C   0  0  0  0  0  0  0  0  0  0  0  0
   36.4158  -16.5338   36.9286 C   0  0  0  0  0  0  0  0  0  0  0  0
   35.3913  -15.7239   36.5106 C   0  0  0  0  0  0  0  0  0  0  0  0
   35.7952  -14.3919   36.6519 C   0  0  0  0  0  0  0  0  0  0  0  0
   37.0712  -14.4265   37.1586 C   0  0  0  0  0  0  0  0  0  0  0  0
   37.9394  -13.2443   37.4869 C   0  0  0  0  0  0  0  0  0  0  0  0
   37.4081  -15.7242   37.3109 N   0  0  0  0  0  0  0  0  0  0  0  0
   38.3115  -16.0825   37.6742 H   0  0  0  0  0  0  0  0  0  0  0  0
   35.6370  -24.9000   38.1835 C   0  0  0  0  0  0  0  0  0  0  0  0
   34.9726  -24.1885   37.1631 O   0  0  0  0  0  0  0  0  0  0  0  0
   38.7692  -20.8388   36.6711 N   0  0  0  0  0  0  0  0  0  0  0  0
   39.0695  -21.5098   37.3819 H   0  0  0  0  0  0  0  0  0  0  0  0
   39.6551  -20.6884   35.5117 C   0  0  0  0  0  0  0  0  0  0  0  0
   41.1047  -20.5645   35.9695 C   0  0  0  0  0  0  0  0  0  0  0  0
   41.5219  -21.7718   36.7772 C   0  0  0  0  0  0  0  0  0  0  0  0
   41.0068  -22.9915   36.1913 N   0  0  0  0  0  0  0  0  0  0  0  0
   41.9551  -24.0879   36.3094 C   0  0  0  0  0  0  0  0  0  0  0  0
   40.7793  -22.7549   34.7771 C   0  0  0  0  0  0  0  0  0  0  0  0
   39.5517  -21.9233   34.6182 C   0  0  0  0  0  0  0  0  0  0  0  0
   32.6916  -22.7358   37.4435 O   0  0  0  0  0  0  0  0  0  0  0  0
   31.8967  -22.7699   38.5918 C   0  0  0  0  0  0  0  0  0  0  0  0
   32.7559  -22.9683   39.8427 C   0  0  0  0  0  0  0  0  0  0  0  0
   32.2236  -24.1707   40.5786 C   0  0  0  0  0  0  0  0  0  0  0  0
   30.8024  -23.9798   40.8071 N   0  0  0  0  0  0  0  0  0  0  0  0
   30.1245  -25.2330   40.7499 C   0  0  0  0  0  0  0  0  0  0  0  0
   29.7523  -25.5681   42.1641 C   0  0  0  0  0  0  0  0  0  0  0  0
   29.4567  -24.1762   42.7303 C   0  0  0  0  0  0  0  0  0  0  0  0
   30.5146  -23.3100   42.0304 C   0  0  0  0  0  0  0  0  0  0  0  0
 18 19  1  0  0  0
 19  1  1  0  0  0
  1  2  2  0  0  0
  2  3  1  0  0  0
  3  4  2  0  0  0
  4 20  1  0  0  0
 20 22  1  0  0  0
 22 23  1  0  0  0
 23 24  1  0  0  0
 24 25  1  0  0  0
 25 26  1  0  0  0
 25 27  1  0  0  0
 27 28  1  0  0  0
  4  5  1  0  0  0
  5  6  2  0  0  0
  6  7  1  0  0  0
  7  8  2  0  0  0
  8  9  1  0  0  0
  9 10  2  0  0  0
 10 29  1  0  0  0
 29 30  1  0  0  0
 30 31  1  0  0  0
 31 32  1  0  0  0
 32 33  1  0  0  0
 33 34  1  0  0  0
 34 35  1  0  0  0
 35 36  1  0  0  0
 36 37  1  0  0  0
  6 11  1  0  0  0
 11 12  2  0  0  0
 12 13  1  0  0  0
 13 14  2  0  0  0
 14 15  1  0  0  0
 14 16  1  0  0  0
 10  1  1  0  0  0
 37 33  1  0  0  0
 16 11  1  0  0  0
  8  3  1  0  0  0
 28 22  1  0  0  0
 20 21  1  0  0  0
 16 17  1  0  0  0
M  END
> <minimizedAffinity>
-4.47709

> <CNNscore>
0.4505819380

> <CNNaffinity>
5.7485885620

> <CNN_VS>
2.5902101994

> <CNNaffinity_variance>
0.0656315386

$$$$
[H]c1c(-c2c([H])c([H])c(C([H])([H])[H])n2[H])nc2c([H])c(OC([H])([H])C([H])([H])C([H])([H])N3C([H])([H])C([H])([H])C([H])([H])C3([H])[H])c(OC([H])([H])[H])c([H])c2c1N([H])C1([H])C([H])([H])C([H])([H])N(C([H])([H])[H])C([H])([H])C1([H])[H]


 37 41  0  0  0  0  0  0  0  0999 V2000
   39.7159  -19.0375   36.6151 C   0  0  0  0  0  0  0  0  0  0  0  0
   38.7243  -18.0547   36.5288 C   0  0  0  0  0  0  0  0  0  0  0  0
   37.4137  -18.3284   36.2233 C   0  0  0  0  0  0  0  0  0  0  0  0
   36.4366  -17.3527   36.1292 C   0  0  0  0  0  0  0  0  0  0  0  0
   35.1525  -17.7570   35.8044 C   0  0  0  0  0  0  0  0  0  0  0  0
   34.8401  -19.0751   35.5796 C   0  0  0  0  0  0  0  0  0  0  0  0
   35.8326  -19.9639   35.6881 N   0  0  0  0  0  0  0  0  0  0  0  0
   37.1050  -19.6739   35.9967 C   0  0  0  0  0  0  0  0  0  0  0  0
   38.0732  -20.6640   36.0771 C   0  0  0  0  0  0  0  0  0  0  0  0
   39.3780  -20.3524   36.3849 C   0  0  0  0  0  0  0  0  0  0  0  0
   33.4588  -19.4696   35.2377 C   0  0  0  0  0  0  0  0  0  0  0  0
   33.0859  -20.6473   34.6426 C   0  0  0  0  0  0  0  0  0  0  0  0
   31.6954  -20.6433   34.4878 C   0  0  0  0  0  0  0  0  0  0  0  0
   31.2529  -19.4480   34.9991 C   0  0  0  0  0  0  0  0  0  0  0  0
   29.8291  -18.9708   35.0633 C   0  0  0  0  0  0  0  0  0  0  0  0
   32.3358  -18.7732   35.4382 N   0  0  0  0  0  0  0  0  0  0  0  0
   32.3334  -17.8339   35.8788 H   0  0  0  0  0  0  0  0  0  0  0  0
   41.9205  -18.3833   35.8855 C   0  0  0  0  0  0  0  0  0  0  0  0
   41.0293  -18.7162   36.9265 O   0  0  0  0  0  0  0  0  0  0  0  0
   36.7586  -16.0096   36.3679 N   0  0  0  0  0  0  0  0  0  0  0  0
   37.1872  -15.4265   35.6454 H   0  0  0  0  0  0  0  0  0  0  0  0
   36.5107  -15.3583   37.6586 C   0  0  0  0  0  0  0  0  0  0  0  0
   37.4360  -14.1579   37.8288 C   0  0  0  0  0  0  0  0  0  0  0  0
   37.2412  -13.1618   36.7089 C   0  0  0  0  0  0  0  0  0  0  0  0
   35.8373  -13.0060   36.3913 N   0  0  0  0  0  0  0  0  0  0  0  0
   35.5116  -11.6298   36.0514 C   0  0  0  0  0  0  0  0  0  0  0  0
   35.0635  -13.3656   37.5659 C   0  0  0  0  0  0  0  0  0  0  0  0
   35.0712  -14.8495   37.7132 C   0  0  0  0  0  0  0  0  0  0  0  0
   40.3641  -21.3127   36.4705 O   0  0  0  0  0  0  0  0  0  0  0  0
   40.4846  -22.2956   37.4558 C   0  0  0  0  0  0  0  0  0  0  0  0
   40.1957  -21.7148   38.8420 C   0  0  0  0  0  0  0  0  0  0  0  0
   41.4775  -21.1210   39.3666 C   0  0  0  0  0  0  0  0  0  0  0  0
   41.1497  -19.9736   40.1940 N   0  0  0  0  0  0  0  0  0  0  0  0
   40.4991  -20.4013   41.3886 C   0  0  0  0  0  0  0  0  0  0  0  0
   41.5000  -20.2241   42.4921 C   0  0  0  0  0  0  0  0  0  0  0  0
   42.2369  -18.9657   42.0243 C   0  0  0  0  0  0  0  0  0  0  0  0
   42.2782  -19.1613   40.5014 C   0  0  0  0  0  0  0  0  0  0  0  0
 18 19  1  0  0  0
 19  1  1  0  0  0
  1  2  2  0  0  0
  2  3  1  0  0  0
  3  4  2  0  0  0
  4 20  1  0  0  0
 20 22  1  0  0  0
 22 23  1  0  0  0
 23 24  1  0  0  0
 24 25  1  0  0  0
 25 26  1  0  0  0
 25 27  1  0  0  0
 27 28  1  0  0  0
  4  5  1  0  0  0
  5  6  2  0  0  0
  6  7  1  0  0  0
  7  8  2  0  0  0
  8  9  1  0  0  0
  9 10  2  0  0  0
 10 29  1  0  0  0
 29 30  1  0  0  0
 30 31  1  0  0  0
 31 32  1  0  0  0
 32 33  1  0  0  0
 33 34  1  0  0  0
 34 35  1  0  0  0
 35 36  1  0  0  0
 36 37  1  0  0  0
  6 11  1  0  0  0
 11 12  2  0  0  0
 12 13  1  0  0  0
 13 14  2  0  0  0
 14 15  1  0  0  0
 14 16  1  0  0  0
 10  1  1  0  0  0
 37 33  1  0  0  0
 16 11  1  0  0  0
  8  3  1  0  0  0
 28 22  1  0  0  0
 20 21  1  0  0  0
 16 17  1  0  0  0
M  END
> <minimizedAffinity>
-6.05269

> <CNNscore>
0.4498043656

> <CNNaffinity>
6.7364668846

> <CNN_VS>
3.0300922394

> <CNNaffinity_variance>
0.0504689291

$$$$
[H]c1c(-c2c([H])c([H])c(C([H])([H])[H])n2[H])nc2c([H])c(OC([H])([H])C([H])([H])C([H])([H])N3C([H])([H])C([H])([H])C([H])([H])C3([H])[H])c(OC([H])([H])[H])c([H])c2c1N([H])C1([H])C([H])([H])C([H])([H])N(C([H])([H])[H])C([H])([H])C1([H])[H]


 37 41  0  0  0  0  0  0  0  0999 V2000
   32.4627  -21.3737   35.4270 C   0  0  0  0  0  0  0  0  0  0  0  0
   33.8259  -21.1430   35.6392 C   0  0  0  0  0  0  0  0  0  0  0  0
   34.3574  -19.8940   35.8472 C   0  0  0  0  0  0  0  0  0  0  0  0
   35.7082  -19.6676   36.0473 C   0  0  0  0  0  0  0  0  0  0  0  0
   36.1203  -18.3591   36.2365 C   0  0  0  0  0  0  0  0  0  0  0  0
   35.2350  -17.3095   36.2289 C   0  0  0  0  0  0  0  0  0  0  0  0
   33.9456  -17.6010   36.0308 N   0  0  0  0  0  0  0  0  0  0  0  0
   33.4478  -18.8313   35.8384 C   0  0  0  0  0  0  0  0  0  0  0  0
   32.0921  -19.0382   35.6298 C   0  0  0  0  0  0  0  0  0  0  0  0
   31.5947  -20.3048   35.4234 C   0  0  0  0  0  0  0  0  0  0  0  0
   35.7106  -15.9271   36.4368 C   0  0  0  0  0  0  0  0  0  0  0  0
   34.9847  -14.7868   36.2064 C   0  0  0  0  0  0  0  0  0  0  0  0
   35.7833  -13.6828   36.5239 C   0  0  0  0  0  0  0  0  0  0  0  0
   36.9897  -14.1865   36.9445 C   0  0  0  0  0  0  0  0  0  0  0  0
   38.1847  -13.3950   37.3968 C   0  0  0  0  0  0  0  0  0  0  0  0
   36.9084  -15.5318   36.8789 N   0  0  0  0  0  0  0  0  0  0  0  0
   37.6589  -16.2025   37.1307 H   0  0  0  0  0  0  0  0  0  0  0  0
   31.7172  -23.0886   33.9025 C   0  0  0  0  0  0  0  0  0  0  0  0
   31.9681  -22.6535   35.2202 O   0  0  0  0  0  0  0  0  0  0  0  0
   36.6067  -20.7431   36.0626 N   0  0  0  0  0  0  0  0  0  0  0  0
   37.1226  -21.0202   35.2243 H   0  0  0  0  0  0  0  0  0  0  0  0
   36.8607  -21.5393   37.2682 C   0  0  0  0  0  0  0  0  0  0  0  0
   37.4720  -22.8848   36.8912 C   0  0  0  0  0  0  0  0  0  0  0  0
   38.7599  -22.6975   36.1228 C   0  0  0  0  0  0  0  0  0  0  0  0
   39.5542  -21.6299   36.6934 N   0  0  0  0  0  0  0  0  0  0  0  0
   40.9764  -21.9302   36.6420 C   0  0  0  0  0  0  0  0  0  0  0  0
   39.1837  -21.4849   38.0896 C   0  0  0  0  0  0  0  0  0  0  0  0
   37.8561  -20.8103   38.1692 C   0  0  0  0  0  0  0  0  0  0  0  0
   30.2532  -20.5438   35.2111 O   0  0  0  0  0  0  0  0  0  0  0  0
   29.3063  -20.8876   36.1788 C   0  0  0  0  0  0  0  0  0  0  0  0
   28.6359  -19.6371   36.7527 C   0  0  0  0  0  0  0  0  0  0  0  0
   27.7645  -20.0710   37.9030 C   0  0  0  0  0  0  0  0  0  0  0  0
   26.9982  -18.9251   38.3590 N   0  0  0  0  0  0  0  0  0  0  0  0
   27.0003  -18.8701   39.7839 C   0  0  0  0  0  0  0  0  0  0  0  0
   27.8999  -17.7277   40.1535 C   0  0  0  0  0  0  0  0  0  0  0  0
   27.6201  -16.7484   39.0098 C   0  0  0  0  0  0  0  0  0  0  0  0
   27.4503  -17.6916   37.8095 C   0  0  0  0  0  0  0  0  0  0  0  0
 18 19  1  0  0  0
 19  1  1  0  0  0
  1  2  2  0  0  0
  2  3  1  0  0  0
  3  4  2  0  0  0
  4 20  1  0  0  0
 20 22  1  0  0  0
 22 23  1  0  0  0
 23 24  1  0  0  0
 24 25  1  0  0  0
 25 26  1  0  0  0
 25 27  1  0  0  0
 27 28  1  0  0  0
  4  5  1  0  0  0
  5  6  2  0  0  0
  6  7  1  0  0  0
  7  8  2  0  0  0
  8  9  1  0  0  0
  9 10  2  0  0  0
 10 29  1  0  0  0
 29 30  1  0  0  0
 30 31  1  0  0  0
 31 32  1  0  0  0
 32 33  1  0  0  0
 33 34  1  0  0  0
 34 35  1  0  0  0
 35 36  1  0  0  0
 36 37  1  0  0  0
  6 11  1  0  0  0
 11 12  2  0  0  0
 12 13  1  0  0  0
 13 14  2  0  0  0
 14 15  1  0  0  0
 14 16  1  0  0  0
 10  1  1  0  0  0
 37 33  1  0  0  0
 16 11  1  0  0  0
  8  3  1  0  0  0
 28 22  1  0  0  0
 20 21  1  0  0  0
 16 17  1  0  0  0
M  END
> <minimizedAffinity>
-4.51304

> <CNNscore>
0.4355053604

> <CNNaffinity>
6.0845613480

> <CNN_VS>
2.6498591900

> <CNNaffinity_variance>
0.1370805800

$$$$
[H]c1c(-c2c([H])c([H])c(C([H])([H])[H])n2[H])nc2c([H])c(OC([H])([H])C([H])([H])C([H])([H])N3C([H])([H])C([H])([H])C([H])([H])C3([H])[H])c(OC([H])([H])[H])c([H])c2c1N([H])C1([H])C([H])([H])C([H])([H])N(C([H])([H])[H])C([H])([H])C1([H])[H]


 37 41  0  0  0  0  0  0  0  0999 V2000
   37.6700  -19.6591   35.8002 C   0  0  0  0  0  0  0  0  0  0  0  0
   36.4017  -19.2731   35.3539 C   0  0  0  0  0  0  0  0  0  0  0  0
   35.8341  -18.0581   35.6494 C   0  0  0  0  0  0  0  0  0  0  0  0
   34.5749  -17.6826   35.2144 C   0  0  0  0  0  0  0  0  0  0  0  0
   34.1110  -16.4326   35.5885 C   0  0  0  0  0  0  0  0  0  0  0  0
   34.8592  -15.5813   36.3638 C   0  0  0  0  0  0  0  0  0  0  0  0
   36.0663  -16.0084   36.7475 N   0  0  0  0  0  0  0  0  0  0  0  0
   36.6041  -17.1975   36.4390 C   0  0  0  0  0  0  0  0  0  0  0  0
   37.8639  -17.5606   36.8919 C   0  0  0  0  0  0  0  0  0  0  0  0
   38.4009  -18.7881   36.5767 C   0  0  0  0  0  0  0  0  0  0  0  0
   34.3328  -14.2543   36.7410 C   0  0  0  0  0  0  0  0  0  0  0  0
   35.0786  -13.1174   36.9186 C   0  0  0  0  0  0  0  0  0  0  0  0
   34.2159  -12.0732   37.2692 C   0  0  0  0  0  0  0  0  0  0  0  0
   32.9516  -12.6088   37.2962 C   0  0  0  0  0  0  0  0  0  0  0  0
   31.6758  -11.8836   37.6210 C   0  0  0  0  0  0  0  0  0  0  0  0
   33.0614  -13.9148   36.9749 N   0  0  0  0  0  0  0  0  0  0  0  0
   32.2814  -14.5957   36.9091 H   0  0  0  0  0  0  0  0  0  0  0  0
   38.7763  -21.0891   34.2027 C   0  0  0  0  0  0  0  0  0  0  0  0
   38.2054  -20.8980   35.4780 O   0  0  0  0  0  0  0  0  0  0  0  0
   33.8186  -18.5517   34.4163 N   0  0  0  0  0  0  0  0  0  0  0  0
   34.2477  -19.0969   33.6651 H   0  0  0  0  0  0  0  0  0  0  0  0
   32.3743  -18.7316   34.5989 C   0  0  0  0  0  0  0  0  0  0  0  0
   31.8578  -19.8232   33.6673 C   0  0  0  0  0  0  0  0  0  0  0  0
   32.5709  -21.1316   33.9196 C   0  0  0  0  0  0  0  0  0  0  0  0
   32.7512  -21.3593   35.3380 N   0  0  0  0  0  0  0  0  0  0  0  0
   32.5969  -22.7642   35.6817 C   0  0  0  0  0  0  0  0  0  0  0  0
   31.7283  -20.6154   36.0508 C   0  0  0  0  0  0  0  0  0  0  0  0
   32.0848  -19.1675   36.0342 C   0  0  0  0  0  0  0  0  0  0  0  0
   39.6491  -19.1800   37.0130 O   0  0  0  0  0  0  0  0  0  0  0  0
   40.8628  -18.9764   36.3521 C   0  0  0  0  0  0  0  0  0  0  0  0
   42.0115  -19.6546   37.1024 C   0  0  0  0  0  0  0  0  0  0  0  0
   43.1481  -18.6689   37.1886 C   0  0  0  0  0  0  0  0  0  0  0  0
   43.0271  -17.7281   36.0893 N   0  0  0  0  0  0  0  0  0  0  0  0
   43.1997  -16.3948   36.5645 C   0  0  0  0  0  0  0  0  0  0  0  0
   44.5482  -15.9524   36.0779 C   0  0  0  0  0  0  0  0  0  0  0  0
   44.6209  -16.6608   34.7221 C   0  0  0  0  0  0  0  0  0  0  0  0
   43.9247  -17.9978   35.0171 C   0  0  0  0  0  0  0  0  0  0  0  0
 18 19  1  0  0  0
 19  1  1  0  0  0
  1  2  2  0  0  0
  2  3  1  0  0  0
  3  4  2  0  0  0
  4 20  1  0  0  0
 20 22  1  0  0  0
 22 23  1  0  0  0
 23 24  1  0  0  0
 24 25  1  0  0  0
 25 26  1  0  0  0
 25 27  1  0  0  0
 27 28  1  0  0  0
  4  5  1  0  0  0
  5  6  2  0  0  0
  6  7  1  0  0  0
  7  8  2  0  0  0
  8  9  1  0  0  0
  9 10  2  0  0  0
 10 29  1  0  0  0
 29 30  1  0  0  0
 30 31  1  0  0  0
 31 32  1  0  0  0
 32 33  1  0  0  0
 33 34  1  0  0  0
 34 35  1  0  0  0
 35 36  1  0  0  0
 36 37  1  0  0  0
  6 11  1  0  0  0
 11 12  2  0  0  0
 12 13  1  0  0  0
 13 14  2  0  0  0
 14 15  1  0  0  0
 14 16  1  0  0  0
 10  1  1  0  0  0
 37 33  1  0  0  0
 16 11  1  0  0  0
  8  3  1  0  0  0
 28 22  1  0  0  0
 20 21  1  0  0  0
 16 17  1  0  0  0
M  END
> <minimizedAffinity>
-7.25093

> <CNNscore>
0.3994275331

> <CNNaffinity>
6.3950872421

> <CNN_VS>
2.5543739796

> <CNNaffinity_variance>
0.1984225959

$$$$
[H]C1=C(c2nc3c([H])c(OC([H])([H])C([H])([H])C([H])([H])N4C([H])([H])C([H])([H])C([H])([H])C4([H])[H])c(OC([H])([H])[H])c([H])c3c(N([H])C3([H])C([H])([H])C([H])([H])N(C([H])([H])[H])C([H])([H])C3([H])[H])c2[H])C([H])([H])C([H])([H])OC1([H])[H]


 36 40  0  0  0  0  0  0  0  0999 V2000
   36.1250  -14.1419   36.6077 C   0  0  0  0  0  0  0  0  0  0  0  0
   36.5658  -15.4006   36.2129 C   0  0  0  0  0  0  0  0  0  0  0  0
   35.7180  -16.4260   35.8449 C   0  0  0  0  0  0  0  0  0  0  0  0
   36.1669  -17.6690   35.4554 C   0  0  0  0  0  0  0  0  0  0  0  0
   35.2140  -18.6195   35.1074 C   0  0  0  0  0  0  0  0  0  0  0  0
   33.8949  -18.3235   35.1531 C   0  0  0  0  0  0  0  0  0  0  0  0
   33.4639  -17.1022   35.5362 N   0  0  0  0  0  0  0  0  0  0  0  0
   34.3486  -16.1666   35.8769 C   0  0  0  0  0  0  0  0  0  0  0  0
   33.8664  -14.9115   36.2691 C   0  0  0  0  0  0  0  0  0  0  0  0
   34.7631  -13.9324   36.6242 C   0  0  0  0  0  0  0  0  0  0  0  0
   32.8829  -19.3217   34.7880 C   0  0  0  0  0  0  0  0  0  0  0  0
   33.2147  -20.6021   34.6906 C   0  0  0  0  0  0  0  0  0  0  0  0
   32.1515  -21.5635   34.3180 C   0  0  0  0  0  0  0  0  0  0  0  0
   30.9384  -21.3432   34.9076 O   0  0  0  0  0  0  0  0  0  0  0  0
   30.6383  -20.0507   35.2415 C   0  0  0  0  0  0  0  0  0  0  0  0
   31.4643  -19.0068   34.5092 C   0  0  0  0  0  0  0  0  0  0  0  0
   38.2496  -13.2978   37.5128 C   0  0  0  0  0  0  0  0  0  0  0  0
   36.9640  -13.1304   36.9703 O   0  0  0  0  0  0  0  0  0  0  0  0
   37.5518  -17.9605   35.4270 N   0  0  0  0  0  0  0  0  0  0  0  0
   38.2066  -17.3257   35.9205 H   0  0  0  0  0  0  0  0  0  0  0  0
   38.0837  -19.1273   34.7285 C   0  0  0  0  0  0  0  0  0  0  0  0
   38.9646  -19.8732   35.7094 C   0  0  0  0  0  0  0  0  0  0  0  0
   39.7878  -20.9548   35.0462 C   0  0  0  0  0  0  0  0  0  0  0  0
   40.5532  -20.4312   33.9294 N   0  0  0  0  0  0  0  0  0  0  0  0
   41.9443  -20.7922   33.9970 C   0  0  0  0  0  0  0  0  0  0  0  0
   40.3833  -18.9957   33.7951 C   0  0  0  0  0  0  0  0  0  0  0  0
   38.9371  -18.7132   33.5259 C   0  0  0  0  0  0  0  0  0  0  0  0
   34.2909  -12.6915   37.0132 O   0  0  0  0  0  0  0  0  0  0  0  0
   33.3861  -12.5893   38.0711 C   0  0  0  0  0  0  0  0  0  0  0  0
   32.3976  -11.4747   37.8106 C   0  0  0  0  0  0  0  0  0  0  0  0
   31.1125  -11.9121   37.2051 C   0  0  0  0  0  0  0  0  0  0  0  0
   29.9389  -11.8393   37.9145 N   0  0  0  0  0  0  0  0  0  0  0  0
   28.9840  -10.8358   37.7506 C   0  0  0  0  0  0  0  0  0  0  0  0
   27.6752  -11.5885   38.0724 C   0  0  0  0  0  0  0  0  0  0  0  0
   28.1579  -12.4127   39.2583 C   0  0  0  0  0  0  0  0  0  0  0  0
   29.6402  -12.6389   39.0111 C   0  0  0  0  0  0  0  0  0  0  0  0
 17 18  1  0  0  0
 18  1  1  0  0  0
  1  2  2  0  0  0
  2  3  1  0  0  0
  3  4  2  0  0  0
  4 19  1  0  0  0
 19 21  1  0  0  0
 21 22  1  0  0  0
 22 23  1  0  0  0
 23 24  1  0  0  0
 24 25  1  0  0  0
 24 26  1  0  0  0
 26 27  1  0  0  0
  4  5  1  0  0  0
  5  6  2  0  0  0
  6  7  1  0  0  0
  7  8  2  0  0  0
  8  9  1  0  0  0
  9 10  2  0  0  0
 10 28  1  0  0  0
 28 29  1  0  0  0
 29 30  1  0  0  0
 30 31  1  0  0  0
 31 32  1  0  0  0
 32 33  1  0  0  0
 33 34  1  0  0  0
 34 35  1  0  0  0
 35 36  1  0  0  0
  6 11  1  0  0  0
 11 12  2  0  0  0
 12 13  1  0  0  0
 13 14  1  0  0  0
 14 15  1  0  0  0
 15 16  1  0  0  0
 10  1  1  0  0  0
 36 32  1  0  0  0
 16 11  1  0  0  0
  8  3  1  0  0  0
 27 21  1  0  0  0
 19 20  1  0  0  0
M  END
> <minimizedAffinity>
-8.65908

> <CNNscore>
0.9207905531

> <CNNaffinity>
7.3174996376

> <CNN_VS>
6.7378845215

> <CNNaffinity_variance>
0.0928877220

$$$$
[H]C1=C(c2nc3c([H])c(OC([H])([H])C([H])([H])C([H])([H])N4C([H])([H])C([H])([H])C([H])([H])C4([H])[H])c(OC([H])([H])[H])c([H])c3c(N([H])C3([H])C([H])([H])C([H])([H])N(C([H])([H])[H])C([H])([H])C3([H])[H])c2[H])C([H])([H])C([H])([H])OC1([H])[H]


 36 40  0  0  0  0  0  0  0  0999 V2000
   36.2074  -15.5690   36.3999 C   0  0  0  0  0  0  0  0  0  0  0  0
   36.4854  -16.9303   36.4654 C   0  0  0  0  0  0  0  0  0  0  0  0
   35.5533  -17.9137   36.2013 C   0  0  0  0  0  0  0  0  0  0  0  0
   35.8409  -19.2594   36.2695 C   0  0  0  0  0  0  0  0  0  0  0  0
   34.8167  -20.1537   35.9802 C   0  0  0  0  0  0  0  0  0  0  0  0
   33.5846  -19.7074   35.6446 C   0  0  0  0  0  0  0  0  0  0  0  0
   33.3117  -18.3862   35.5803 N   0  0  0  0  0  0  0  0  0  0  0  0
   34.2687  -17.5002   35.8512 C   0  0  0  0  0  0  0  0  0  0  0  0
   33.9506  -16.1385   35.7748 C   0  0  0  0  0  0  0  0  0  0  0  0
   34.9243  -15.2084   36.0502 C   0  0  0  0  0  0  0  0  0  0  0  0
   32.4980  -20.6452   35.3385 C   0  0  0  0  0  0  0  0  0  0  0  0
   32.6818  -21.9500   35.4892 C   0  0  0  0  0  0  0  0  0  0  0  0
   31.5497  -22.8478   35.1642 C   0  0  0  0  0  0  0  0  0  0  0  0
   30.3230  -22.4048   35.5726 O   0  0  0  0  0  0  0  0  0  0  0  0
   30.1504  -21.0500   35.6552 C   0  0  0  0  0  0  0  0  0  0  0  0
   31.1586  -20.2405   34.8574 C   0  0  0  0  0  0  0  0  0  0  0  0
   37.4387  -14.0957   37.9358 C   0  0  0  0  0  0  0  0  0  0  0  0
   37.1295  -14.5994   36.6607 O   0  0  0  0  0  0  0  0  0  0  0  0
   37.1341  -19.7040   36.6350 N   0  0  0  0  0  0  0  0  0  0  0  0
   37.4317  -19.6166   37.6246 H   0  0  0  0  0  0  0  0  0  0  0  0
   38.0574  -20.2837   35.6636 C   0  0  0  0  0  0  0  0  0  0  0  0
   39.4612  -19.9613   36.1326 C   0  0  0  0  0  0  0  0  0  0  0  0
   40.5094  -20.2722   35.0878 C   0  0  0  0  0  0  0  0  0  0  0  0
   40.2062  -19.6289   33.8222 N   0  0  0  0  0  0  0  0  0  0  0  0
   41.3239  -18.8906   33.2973 C   0  0  0  0  0  0  0  0  0  0  0  0
   39.0198  -18.7980   33.9193 C   0  0  0  0  0  0  0  0  0  0  0  0
   37.8566  -19.6729   34.2735 C   0  0  0  0  0  0  0  0  0  0  0  0
   34.6138  -13.8621   35.9769 O   0  0  0  0  0  0  0  0  0  0  0  0
   33.2986  -13.4375   36.1728 C   0  0  0  0  0  0  0  0  0  0  0  0
   33.1147  -12.9342   37.5871 C   0  0  0  0  0  0  0  0  0  0  0  0
   32.0416  -11.9190   37.7513 C   0  0  0  0  0  0  0  0  0  0  0  0
   32.3143  -10.5791   37.6241 N   0  0  0  0  0  0  0  0  0  0  0  0
   33.5743  -10.0129   37.8179 C   0  0  0  0  0  0  0  0  0  0  0  0
   33.5419   -8.8239   36.8339 C   0  0  0  0  0  0  0  0  0  0  0  0
   32.1153   -8.3502   37.0769 C   0  0  0  0  0  0  0  0  0  0  0  0
   31.3426   -9.5967   37.4755 C   0  0  0  0  0  0  0  0  0  0  0  0
 17 18  1  0  0  0
 18  1  1  0  0  0
  1  2  2  0  0  0
  2  3  1  0  0  0
  3  4  2  0  0  0
  4 19  1  0  0  0
 19 21  1  0  0  0
 21 22  1  0  0  0
 22 23  1  0  0  0
 23 24  1  0  0  0
 24 25  1  0  0  0
 24 26  1  0  0  0
 26 27  1  0  0  0
  4  5  1  0  0  0
  5  6  2  0  0  0
  6  7  1  0  0  0
  7  8  2  0  0  0
  8  9  1  0  0  0
  9 10  2  0  0  0
 10 28  1  0  0  0
 28 29  1  0  0  0
 29 30  1  0  0  0
 30 31  1  0  0  0
 31 32  1  0  0  0
 32 33  1  0  0  0
 33 34  1  0  0  0
 34 35  1  0  0  0
 35 36  1  0  0  0
  6 11  1  0  0  0
 11 12  2  0  0  0
 12 13  1  0  0  0
 13 14  1  0  0  0
 14 15  1  0  0  0
 15 16  1  0  0  0
 10  1  1  0  0  0
 36 32  1  0  0  0
 16 11  1  0  0  0
  8  3  1  0  0  0
 27 21  1  0  0  0
 19 20  1  0  0  0
M  END
> <minimizedAffinity>
-7.86598

> <CNNscore>
0.5990996361

> <CNNaffinity>
6.7315940857

> <CNN_VS>
4.0328955650

> <CNNaffinity_variance>
0.1113710180

$$$$
[H]C1=C(c2nc3c([H])c(OC([H])([H])C([H])([H])C([H])([H])N4C([H])([H])C([H])([H])C([H])([H])C4([H])[H])c(OC([H])([H])[H])c([H])c3c(N([H])C3([H])C([H])([H])C([H])([H])N(C([H])([H])[H])C([H])([H])C3([H])[H])c2[H])C([H])([H])C([H])([H])OC1([H])[H]


 36 40  0  0  0  0  0  0  0  0999 V2000
   32.9480  -21.1736   35.6709 C   0  0  0  0  0  0  0  0  0  0  0  0
   34.1661  -20.6488   36.0894 C   0  0  0  0  0  0  0  0  0  0  0  0
   34.4356  -19.2960   36.1469 C   0  0  0  0  0  0  0  0  0  0  0  0
   35.6467  -18.7881   36.5634 C   0  0  0  0  0  0  0  0  0  0  0  0
   35.7963  -17.4061   36.5780 C   0  0  0  0  0  0  0  0  0  0  0  0
   34.7818  -16.5978   36.1947 C   0  0  0  0  0  0  0  0  0  0  0  0
   33.5978  -17.1045   35.7877 N   0  0  0  0  0  0  0  0  0  0  0  0
   33.4186  -18.4241   35.7607 C   0  0  0  0  0  0  0  0  0  0  0  0
   32.1784  -18.9148   35.3333 C   0  0  0  0  0  0  0  0  0  0  0  0
   31.9734  -20.2734   35.2986 C   0  0  0  0  0  0  0  0  0  0  0  0
   34.9322  -15.1379   36.2066 C   0  0  0  0  0  0  0  0  0  0  0  0
   33.8819  -14.3617   36.4376 C   0  0  0  0  0  0  0  0  0  0  0  0
   34.0942  -12.8960   36.4366 C   0  0  0  0  0  0  0  0  0  0  0  0
   35.2442  -12.4766   37.0443 O   0  0  0  0  0  0  0  0  0  0  0  0
   36.3018  -13.3447   37.0336 C   0  0  0  0  0  0  0  0  0  0  0  0
   36.2105  -14.4299   35.9743 C   0  0  0  0  0  0  0  0  0  0  0  0
   33.2521  -23.4848   36.4529 C   0  0  0  0  0  0  0  0  0  0  0  0
   32.6837  -22.5098   35.6153 O   0  0  0  0  0  0  0  0  0  0  0  0
   36.6988  -19.6533   36.9482 N   0  0  0  0  0  0  0  0  0  0  0  0
   36.7663  -19.9482   37.9402 H   0  0  0  0  0  0  0  0  0  0  0  0
   37.6871  -20.1445   35.9920 C   0  0  0  0  0  0  0  0  0  0  0  0
   39.0408  -19.6413   36.4489 C   0  0  0  0  0  0  0  0  0  0  0  0
   40.1206  -19.8527   35.4113 C   0  0  0  0  0  0  0  0  0  0  0  0
   39.7437  -19.2871   34.1286 N   0  0  0  0  0  0  0  0  0  0  0  0
   40.7647  -18.4343   33.5808 C   0  0  0  0  0  0  0  0  0  0  0  0
   38.4653  -18.6035   34.2042 C   0  0  0  0  0  0  0  0  0  0  0  0
   37.4160  -19.6023   34.5854 C   0  0  0  0  0  0  0  0  0  0  0  0
   30.7500  -20.7622   34.8760 O   0  0  0  0  0  0  0  0  0  0  0  0
   29.5723  -20.2998   35.4656 C   0  0  0  0  0  0  0  0  0  0  0  0
   29.0168  -21.3390   36.4137 C   0  0  0  0  0  0  0  0  0  0  0  0
   28.5178  -22.5759   35.7576 C   0  0  0  0  0  0  0  0  0  0  0  0
   29.0434  -23.8037   36.0768 N   0  0  0  0  0  0  0  0  0  0  0  0
   29.0643  -24.8974   35.2113 C   0  0  0  0  0  0  0  0  0  0  0  0
   30.3542  -25.6234   35.6496 C   0  0  0  0  0  0  0  0  0  0  0  0
   30.2183  -25.4643   37.1579 C   0  0  0  0  0  0  0  0  0  0  0  0
   29.4457  -24.1706   37.3554 C   0  0  0  0  0  0  0  0  0  0  0  0
 17 18  1  0  0  0
 18  1  1  0  0  0
  1  2  2  0  0  0
  2  3  1  0  0  0
  3  4  2  0  0  0
  4 19  1  0  0  0
 19 21  1  0  0  0
 21 22  1  0  0  0
 22 23  1  0  0  0
 23 24  1  0  0  0
 24 25  1  0  0  0
 24 26  1  0  0  0
 26 27  1  0  0  0
  4  5  1  0  0  0
  5  6  2  0  0  0
  6  7  1  0  0  0
  7  8  2  0  0  0
  8  9  1  0  0  0
  9 10  2  0  0  0
 10 28  1  0  0  0
 28 29  1  0  0  0
 29 30  1  0  0  0
 30 31  1  0  0  0
 31 32  1  0  0  0
 32 33  1  0  0  0
 33 34  1  0  0  0
 34 35  1  0  0  0
 35 36  1  0  0  0
  6 11  1  0  0  0
 11 12  2  0  0  0
 12 13  1  0  0  0
 13 14  1  0  0  0
 14 15  1  0  0  0
 15 16  1  0  0  0
 10  1  1  0  0  0
 36 32  1  0  0  0
 16 11  1  0  0  0
  8  3  1  0  0  0
 27 21  1  0  0  0
 19 20  1  0  0  0
M  END
> <minimizedAffinity>
-6.55638

> <CNNscore>
0.4758815467

> <CNNaffinity>
6.1434164047

> <CNN_VS>
2.9235384464

> <CNNaffinity_variance>
0.2996710837

$$$$
[H]C1=C(c2nc3c([H])c(OC([H])([H])C([H])([H])C([H])([H])N4C([H])([H])C([H])([H])C([H])([H])C4([H])[H])c(OC([H])([H])[H])c([H])c3c(N([H])C3([H])C([H])([H])C([H])([H])N(C([H])([H])[H])C([H])([H])C3([H])[H])c2[H])C([H])([H])C([H])([H])OC1([H])[H]


 36 40  0  0  0  0  0  0  0  0999 V2000
   32.3766  -18.9193   35.3202 C   0  0  0  0  0  0  0  0  0  0  0  0
   33.3214  -18.0141   35.7919 C   0  0  0  0  0  0  0  0  0  0  0  0
   34.6726  -18.1126   35.5267 C   0  0  0  0  0  0  0  0  0  0  0  0
   35.5990  -17.2091   35.9999 C   0  0  0  0  0  0  0  0  0  0  0  0
   36.9320  -17.4157   35.6637 C   0  0  0  0  0  0  0  0  0  0  0  0
   37.2956  -18.4700   34.8982 C   0  0  0  0  0  0  0  0  0  0  0  0
   36.3805  -19.3507   34.4388 N   0  0  0  0  0  0  0  0  0  0  0  0
   35.0939  -19.1844   34.7411 C   0  0  0  0  0  0  0  0  0  0  0  0
   34.1725  -20.1166   34.2479 C   0  0  0  0  0  0  0  0  0  0  0  0
   32.8402  -19.9625   34.5483 C   0  0  0  0  0  0  0  0  0  0  0  0
   38.7007  -18.6953   34.5397 C   0  0  0  0  0  0  0  0  0  0  0  0
   39.5857  -19.0074   35.4770 C   0  0  0  0  0  0  0  0  0  0  0  0
   40.9893  -19.2224   35.0559 C   0  0  0  0  0  0  0  0  0  0  0  0
   41.1442  -19.9143   33.8876 O   0  0  0  0  0  0  0  0  0  0  0  0
   40.1377  -19.8073   32.9669 C   0  0  0  0  0  0  0  0  0  0  0  0
   39.2351  -18.6011   33.1632 C   0  0  0  0  0  0  0  0  0  0  0  0
   30.0162  -18.9597   34.6332 C   0  0  0  0  0  0  0  0  0  0  0  0
   31.0427  -18.8201   35.5828 O   0  0  0  0  0  0  0  0  0  0  0  0
   35.1973  -16.1200   36.8099 N   0  0  0  0  0  0  0  0  0  0  0  0
   35.0136  -16.2867   37.8168 H   0  0  0  0  0  0  0  0  0  0  0  0
   35.0380  -14.7718   36.2720 C   0  0  0  0  0  0  0  0  0  0  0  0
   35.7181  -13.8219   37.2362 C   0  0  0  0  0  0  0  0  0  0  0  0
   35.4054  -12.3718   36.9420 C   0  0  0  0  0  0  0  0  0  0  0  0
   33.9740  -12.1383   36.8797 N   0  0  0  0  0  0  0  0  0  0  0  0
   33.5594  -11.0329   37.7020 C   0  0  0  0  0  0  0  0  0  0  0  0
   33.2251  -13.3421   37.1917 C   0  0  0  0  0  0  0  0  0  0  0  0
   33.5592  -14.3857   36.1704 C   0  0  0  0  0  0  0  0  0  0  0  0
   31.9268  -20.8817   34.0638 O   0  0  0  0  0  0  0  0  0  0  0  0
   32.0459  -22.2301   34.4046 C   0  0  0  0  0  0  0  0  0  0  0  0
   31.9840  -22.3994   35.9063 C   0  0  0  0  0  0  0  0  0  0  0  0
   33.1965  -23.0076   36.5139 C   0  0  0  0  0  0  0  0  0  0  0  0
   34.0845  -22.2432   37.2300 N   0  0  0  0  0  0  0  0  0  0  0  0
   35.4175  -22.5895   37.4514 C   0  0  0  0  0  0  0  0  0  0  0  0
   36.0975  -21.2052   37.5175 C   0  0  0  0  0  0  0  0  0  0  0  0
   35.0449  -20.4593   38.3264 C   0  0  0  0  0  0  0  0  0  0  0  0
   33.7258  -21.1308   37.9818 C   0  0  0  0  0  0  0  0  0  0  0  0
 17 18  1  0  0  0
 18  1  1  0  0  0
  1  2  2  0  0  0
  2  3  1  0  0  0
  3  4  2  0  0  0
  4 19  1  0  0  0
 19 21  1  0  0  0
 21 22  1  0  0  0
 22 23  1  0  0  0
 23 24  1  0  0  0
 24 25  1  0  0  0
 24 26  1  0  0  0
 26 27  1  0  0  0
  4  5  1  0  0  0
  5  6  2  0  0  0
  6  7  1  0  0  0
  7  8  2  0  0  0
  8  9  1  0  0  0
  9 10  2  0  0  0
 10 28  1  0  0  0
 28 29  1  0  0  0
 29 30  1  0  0  0
 30 31  1  0  0  0
 31 32  1  0  0  0
 32 33  1  0  0  0
 33 34  1  0  0  0
 34 35  1  0  0  0
 35 36  1  0  0  0
  6 11  1  0  0  0
 11 12  2  0  0  0
 12 13  1  0  0  0
 13 14  1  0  0  0
 14 15  1  0  0  0
 15 16  1  0  0  0
 10  1  1  0  0  0
 36 32  1  0  0  0
 16 11  1  0  0  0
  8  3  1  0  0  0
 27 21  1  0  0  0
 19 20  1  0  0  0
M  END
> <minimizedAffinity>
-6.79093

> <CNNscore>
0.4704199731

> <CNNaffinity>
6.6745805740

> <CNN_VS>
3.1398561001

> <CNNaffinity_variance>
0.0707469583

$$$$
[H]C1=C(c2nc3c([H])c(OC([H])([H])C([H])([H])C([H])([H])N4C([H])([H])C([H])([H])C([H])([H])C4([H])[H])c(OC([H])([H])[H])c([H])c3c(N([H])C3([H])C([H])([H])C([H])([H])N(C([H])([H])[H])C([H])([H])C3([H])[H])c2[H])C([H])([H])C([H])([H])OC1([H])[H]


 36 40  0  0  0  0  0  0  0  0999 V2000
   36.1040  -15.5905   36.3320 C   0  0  0  0  0  0  0  0  0  0  0  0
   36.3607  -16.9575   36.3298 C   0  0  0  0  0  0  0  0  0  0  0  0
   35.4014  -17.9143   36.0651 C   0  0  0  0  0  0  0  0  0  0  0  0
   35.6681  -19.2660   36.0658 C   0  0  0  0  0  0  0  0  0  0  0  0
   34.6173  -20.1313   35.7835 C   0  0  0  0  0  0  0  0  0  0  0  0
   33.3804  -19.6520   35.5187 C   0  0  0  0  0  0  0  0  0  0  0  0
   33.1281  -18.3252   35.5203 N   0  0  0  0  0  0  0  0  0  0  0  0
   34.1108  -17.4665   35.7867 C   0  0  0  0  0  0  0  0  0  0  0  0
   33.8136  -16.0979   35.7797 C   0  0  0  0  0  0  0  0  0  0  0  0
   34.8139  -15.1955   36.0518 C   0  0  0  0  0  0  0  0  0  0  0  0
   32.2658  -20.5591   35.2206 C   0  0  0  0  0  0  0  0  0  0  0  0
   32.4289  -21.8713   35.3231 C   0  0  0  0  0  0  0  0  0  0  0  0
   31.2690  -22.7369   35.0088 C   0  0  0  0  0  0  0  0  0  0  0  0
   30.0658  -22.2848   35.4731 O   0  0  0  0  0  0  0  0  0  0  0  0
   29.9228  -20.9304   35.6049 C   0  0  0  0  0  0  0  0  0  0  0  0
   30.9190  -20.1141   34.7991 C   0  0  0  0  0  0  0  0  0  0  0  0
   37.4128  -14.1913   37.8730 C   0  0  0  0  0  0  0  0  0  0  0  0
   37.0529  -14.6473   36.5933 O   0  0  0  0  0  0  0  0  0  0  0  0
   36.9673  -19.7457   36.3580 N   0  0  0  0  0  0  0  0  0  0  0  0
   37.6072  -19.9667   35.5724 H   0  0  0  0  0  0  0  0  0  0  0  0
   37.4333  -19.9347   37.7289 C   0  0  0  0  0  0  0  0  0  0  0  0
   38.4639  -21.0445   37.7024 C   0  0  0  0  0  0  0  0  0  0  0  0
   38.8379  -21.5243   39.0871 C   0  0  0  0  0  0  0  0  0  0  0  0
   37.6646  -21.9008   39.8545 N   0  0  0  0  0  0  0  0  0  0  0  0
   37.7879  -23.2068   40.4451 C   0  0  0  0  0  0  0  0  0  0  0  0
   36.4531  -21.7886   39.0625 C   0  0  0  0  0  0  0  0  0  0  0  0
   36.2866  -20.3577   38.6519 C   0  0  0  0  0  0  0  0  0  0  0  0
   34.5242  -13.8427   36.0469 O   0  0  0  0  0  0  0  0  0  0  0  0
   33.2098  -13.4097   36.2294 C   0  0  0  0  0  0  0  0  0  0  0  0
   33.0111  -12.9180   37.6458 C   0  0  0  0  0  0  0  0  0  0  0  0
   31.9522  -11.8867   37.8032 C   0  0  0  0  0  0  0  0  0  0  0  0
   32.2377  -10.5535   37.6398 N   0  0  0  0  0  0  0  0  0  0  0  0
   33.4954   -9.9887   37.8518 C   0  0  0  0  0  0  0  0  0  0  0  0
   33.5000   -8.8329   36.8285 C   0  0  0  0  0  0  0  0  0  0  0  0
   32.0702   -8.3430   37.0135 C   0  0  0  0  0  0  0  0  0  0  0  0
   31.2776   -9.5709   37.4303 C   0  0  0  0  0  0  0  0  0  0  0  0
 17 18  1  0  0  0
 18  1  1  0  0  0
  1  2  2  0  0  0
  2  3  1  0  0  0
  3  4  2  0  0  0
  4 19  1  0  0  0
 19 21  1  0  0  0
 21 22  1  0  0  0
 22 23  1  0  0  0
 23 24  1  0  0  0
 24 25  1  0  0  0
 24 26  1  0  0  0
 26 27  1  0  0  0
  4  5  1  0  0  0
  5  6  2  0  0  0
  6  7  1  0  0  0
  7  8  2  0  0  0
  8  9  1  0  0  0
  9 10  2  0  0  0
 10 28  1  0  0  0
 28 29  1  0  0  0
 29 30  1  0  0  0
 30 31  1  0  0  0
 31 32  1  0  0  0
 32 33  1  0  0  0
 33 34  1  0  0  0
 34 35  1  0  0  0
 35 36  1  0  0  0
  6 11  1  0  0  0
 11 12  2  0  0  0
 12 13  1  0  0  0
 13 14  1  0  0  0
 14 15  1  0  0  0
 15 16  1  0  0  0
 10  1  1  0  0  0
 36 32  1  0  0  0
 16 11  1  0  0  0
  8  3  1  0  0  0
 27 21  1  0  0  0
 19 20  1  0  0  0
M  END
> <minimizedAffinity>
-7.32594

> <CNNscore>
0.3879341781

> <CNNaffinity>
6.3580636978

> <CNN_VS>
2.4665102959

> <CNNaffinity_variance>
0.2687811852

$$$$
[H]C1=C(c2nc3c([H])c(OC([H])([H])C([H])([H])C([H])([H])N4C([H])([H])C([H])([H])C([H])([H])C4([H])[H])c(OC([H])([H])[H])c([H])c3c(N([H])C3([H])C([H])([H])C([H])([H])N(C([H])([H])[H])C([H])([H])C3([H])[H])c2[H])C([H])([H])C([H])([H])OC1([H])[H]


 36 40  0  0  0  0  0  0  0  0999 V2000
   38.8023  -20.9495   35.9140 C   0  0  0  0  0  0  0  0  0  0  0  0
   37.4910  -20.5765   35.6384 C   0  0  0  0  0  0  0  0  0  0  0  0
   36.9988  -19.3038   35.8478 C   0  0  0  0  0  0  0  0  0  0  0  0
   35.6974  -18.9464   35.5707 C   0  0  0  0  0  0  0  0  0  0  0  0
   35.3210  -17.6324   35.8243 C   0  0  0  0  0  0  0  0  0  0  0  0
   36.2095  -16.7442   36.3257 C   0  0  0  0  0  0  0  0  0  0  0  0
   37.4834  -17.1035   36.5945 N   0  0  0  0  0  0  0  0  0  0  0  0
   37.8794  -18.3543   36.3640 C   0  0  0  0  0  0  0  0  0  0  0  0
   39.2073  -18.6920   36.6543 C   0  0  0  0  0  0  0  0  0  0  0  0
   39.6356  -19.9773   36.4233 C   0  0  0  0  0  0  0  0  0  0  0  0
   35.8196  -15.3556   36.5969 C   0  0  0  0  0  0  0  0  0  0  0  0
   36.7479  -14.4212   36.7527 C   0  0  0  0  0  0  0  0  0  0  0  0
   36.2948  -13.0378   37.0252 C   0  0  0  0  0  0  0  0  0  0  0  0
   35.2076  -12.6315   36.3036 O   0  0  0  0  0  0  0  0  0  0  0  0
   34.3243  -13.6019   35.9159 C   0  0  0  0  0  0  0  0  0  0  0  0
   34.4198  -14.8908   36.7145 C   0  0  0  0  0  0  0  0  0  0  0  0
   38.9043  -23.3524   36.4247 C   0  0  0  0  0  0  0  0  0  0  0  0
   39.2864  -22.2067   35.7060 O   0  0  0  0  0  0  0  0  0  0  0  0
   34.7812  -19.8958   35.0580 N   0  0  0  0  0  0  0  0  0  0  0  0
   35.0685  -20.8909   35.0068 H   0  0  0  0  0  0  0  0  0  0  0  0
   33.4460  -19.5172   34.6039 C   0  0  0  0  0  0  0  0  0  0  0  0
   32.6401  -19.1565   35.8347 C   0  0  0  0  0  0  0  0  0  0  0  0
   31.1653  -18.9988   35.5387 C   0  0  0  0  0  0  0  0  0  0  0  0
   30.6285  -20.1707   34.8711 N   0  0  0  0  0  0  0  0  0  0  0  0
   29.4371  -20.6691   35.5052 C   0  0  0  0  0  0  0  0  0  0  0  0
   31.6319  -21.2108   34.7344 C   0  0  0  0  0  0  0  0  0  0  0  0
   32.7510  -20.6813   33.8912 C   0  0  0  0  0  0  0  0  0  0  0  0
   40.9463  -20.3153   36.7096 O   0  0  0  0  0  0  0  0  0  0  0  0
   41.9796  -19.8606   35.8887 C   0  0  0  0  0  0  0  0  0  0  0  0
   43.0355  -19.1593   36.7138 C   0  0  0  0  0  0  0  0  0  0  0  0
   43.5769  -19.9612   37.8423 C   0  0  0  0  0  0  0  0  0  0  0  0
   43.1010  -19.7912   39.1191 N   0  0  0  0  0  0  0  0  0  0  0  0
   42.4439  -20.7812   39.8499 C   0  0  0  0  0  0  0  0  0  0  0  0
   42.8567  -20.4336   41.2962 C   0  0  0  0  0  0  0  0  0  0  0  0
   42.7431  -18.9170   41.2202 C   0  0  0  0  0  0  0  0  0  0  0  0
   43.0416  -18.5659   39.7720 C   0  0  0  0  0  0  0  0  0  0  0  0
 17 18  1  0  0  0
 18  1  1  0  0  0
  1  2  2  0  0  0
  2  3  1  0  0  0
  3  4  2  0  0  0
  4 19  1  0  0  0
 19 21  1  0  0  0
 21 22  1  0  0  0
 22 23  1  0  0  0
 23 24  1  0  0  0
 24 25  1  0  0  0
 24 26  1  0  0  0
 26 27  1  0  0  0
  4  5  1  0  0  0
  5  6  2  0  0  0
  6  7  1  0  0  0
  7  8  2  0  0  0
  8  9  1  0  0  0
  9 10  2  0  0  0
 10 28  1  0  0  0
 28 29  1  0  0  0
 29 30  1  0  0  0
 30 31  1  0  0  0
 31 32  1  0  0  0
 32 33  1  0  0  0
 33 34  1  0  0  0
 34 35  1  0  0  0
 35 36  1  0  0  0
  6 11  1  0  0  0
 11 12  2  0  0  0
 12 13  1  0  0  0
 13 14  1  0  0  0
 14 15  1  0  0  0
 15 16  1  0  0  0
 10  1  1  0  0  0
 36 32  1  0  0  0
 16 11  1  0  0  0
  8  3  1  0  0  0
 27 21  1  0  0  0
 19 20  1  0  0  0
M  END
> <minimizedAffinity>
-6.08276

> <CNNscore>
0.3875174820

> <CNNaffinity>
6.2530226707

> <CNN_VS>
2.4231555462

> <CNNaffinity_variance>
0.1343863010

$$$$
[H]C1=C(c2nc3c([H])c(OC([H])([H])C([H])([H])C([H])([H])N4C([H])([H])C([H])([H])C([H])([H])C4([H])[H])c(OC([H])([H])[H])c([H])c3c(N([H])C3([H])C([H])([H])C([H])([H])N(C([H])([H])[H])C([H])([H])C3([H])[H])c2[H])C([H])([H])C([H])([H])OC1([H])[H]


 36 40  0  0  0  0  0  0  0  0999 V2000
   40.1420  -19.8312   37.1021 C   0  0  0  0  0  0  0  0  0  0  0  0
   39.1474  -18.8645   36.9986 C   0  0  0  0  0  0  0  0  0  0  0  0
   37.8092  -19.1601   36.8325 C   0  0  0  0  0  0  0  0  0  0  0  0
   36.8330  -18.1931   36.7313 C   0  0  0  0  0  0  0  0  0  0  0  0
   35.5193  -18.6170   36.5666 C   0  0  0  0  0  0  0  0  0  0  0  0
   35.2213  -19.9352   36.5092 C   0  0  0  0  0  0  0  0  0  0  0  0
   36.1849  -20.8763   36.6093 N   0  0  0  0  0  0  0  0  0  0  0  0
   37.4548  -20.5068   36.7677 C   0  0  0  0  0  0  0  0  0  0  0  0
   38.4279  -21.5091   36.8678 C   0  0  0  0  0  0  0  0  0  0  0  0
   39.7440  -21.1486   37.0320 C   0  0  0  0  0  0  0  0  0  0  0  0
   33.8371  -20.3906   36.3347 C   0  0  0  0  0  0  0  0  0  0  0  0
   32.9089  -19.5495   35.8989 C   0  0  0  0  0  0  0  0  0  0  0  0
   31.5293  -20.0653   35.7431 C   0  0  0  0  0  0  0  0  0  0  0  0
   31.4370  -21.3227   35.2156 O   0  0  0  0  0  0  0  0  0  0  0  0
   32.4870  -22.1690   35.4460 C   0  0  0  0  0  0  0  0  0  0  0  0
   33.3709  -21.7668   36.6144 C   0  0  0  0  0  0  0  0  0  0  0  0
   42.0368  -18.2644   37.1062 C   0  0  0  0  0  0  0  0  0  0  0  0
   41.4629  -19.5372   37.2665 O   0  0  0  0  0  0  0  0  0  0  0  0
   37.1694  -16.8191   36.7816 N   0  0  0  0  0  0  0  0  0  0  0  0
   38.0584  -16.5058   36.3491 H   0  0  0  0  0  0  0  0  0  0  0  0
   36.3026  -15.8320   37.4193 C   0  0  0  0  0  0  0  0  0  0  0  0
   35.2858  -15.3947   36.3852 C   0  0  0  0  0  0  0  0  0  0  0  0
   34.4911  -14.1858   36.8258 C   0  0  0  0  0  0  0  0  0  0  0  0
   35.3607  -13.0917   37.2183 N   0  0  0  0  0  0  0  0  0  0  0  0
   35.0129  -11.8529   36.5748 C   0  0  0  0  0  0  0  0  0  0  0  0
   36.7587  -13.4234   37.0108 C   0  0  0  0  0  0  0  0  0  0  0  0
   37.0980  -14.6029   37.8695 C   0  0  0  0  0  0  0  0  0  0  0  0
   40.7084  -22.1357   37.1304 O   0  0  0  0  0  0  0  0  0  0  0  0
   41.5889  -22.3593   36.0706 C   0  0  0  0  0  0  0  0  0  0  0  0
   40.8193  -22.6284   34.7967 C   0  0  0  0  0  0  0  0  0  0  0  0
   41.3057  -21.8819   33.6069 C   0  0  0  0  0  0  0  0  0  0  0  0
   40.9865  -20.5584   33.4269 N   0  0  0  0  0  0  0  0  0  0  0  0
   39.8268  -20.1100   32.7947 C   0  0  0  0  0  0  0  0  0  0  0  0
   39.5553  -18.7830   33.5354 C   0  0  0  0  0  0  0  0  0  0  0  0
   40.9837  -18.2636   33.6283 C   0  0  0  0  0  0  0  0  0  0  0  0
   41.8583  -19.5055   33.6769 C   0  0  0  0  0  0  0  0  0  0  0  0
 17 18  1  0  0  0
 18  1  1  0  0  0
  1  2  2  0  0  0
  2  3  1  0  0  0
  3  4  2  0  0  0
  4 19  1  0  0  0
 19 21  1  0  0  0
 21 22  1  0  0  0
 22 23  1  0  0  0
 23 24  1  0  0  0
 24 25  1  0  0  0
 24 26  1  0  0  0
 26 27  1  0  0  0
  4  5  1  0  0  0
  5  6  2  0  0  0
  6  7  1  0  0  0
  7  8  2  0  0  0
  8  9  1  0  0  0
  9 10  2  0  0  0
 10 28  1  0  0  0
 28 29  1  0  0  0
 29 30  1  0  0  0
 30 31  1  0  0  0
 31 32  1  0  0  0
 32 33  1  0  0  0
 33 34  1  0  0  0
 34 35  1  0  0  0
 35 36  1  0  0  0
  6 11  1  0  0  0
 11 12  2  0  0  0
 12 13  1  0  0  0
 13 14  1  0  0  0
 14 15  1  0  0  0
 15 16  1  0  0  0
 10  1  1  0  0  0
 36 32  1  0  0  0
 16 11  1  0  0  0
  8  3  1  0  0  0
 27 21  1  0  0  0
 19 20  1  0  0  0
M  END
> <minimizedAffinity>
-6.22705

> <CNNscore>
0.3871479034

> <CNNaffinity>
6.2753438950

> <CNN_VS>
2.4294862747

> <CNNaffinity_variance>
0.1434209347

$$$$
[H]C1=C(c2nc3c([H])c(OC([H])([H])C([H])([H])C([H])([H])N4C([H])([H])C([H])([H])C([H])([H])C4([H])[H])c(OC([H])([H])[H])c([H])c3c(N([H])C3([H])C([H])([H])C([H])([H])N(C([H])([H])[H])C([H])([H])C3([H])[H])c2[H])C([H])([H])C([H])([H])OC1([H])[H]


 36 40  0  0  0  0  0  0  0  0999 V2000
   35.9231  -21.8479   37.1804 C   0  0  0  0  0  0  0  0  0  0  0  0
   36.8923  -20.8606   37.0384 C   0  0  0  0  0  0  0  0  0  0  0  0
   36.5998  -19.5249   36.8484 C   0  0  0  0  0  0  0  0  0  0  0  0
   37.5691  -18.5557   36.7090 C   0  0  0  0  0  0  0  0  0  0  0  0
   37.1483  -17.2439   36.5232 C   0  0  0  0  0  0  0  0  0  0  0  0
   35.8306  -16.9408   36.4822 C   0  0  0  0  0  0  0  0  0  0  0  0
   34.8872  -17.8975   36.6197 N   0  0  0  0  0  0  0  0  0  0  0  0
   35.2537  -19.1654   36.7993 C   0  0  0  0  0  0  0  0  0  0  0  0
   34.2490  -20.1312   36.9381 C   0  0  0  0  0  0  0  0  0  0  0  0
   34.6064  -21.4452   37.1246 C   0  0  0  0  0  0  0  0  0  0  0  0
   35.3784  -15.5586   36.2855 C   0  0  0  0  0  0  0  0  0  0  0  0
   34.0821  -15.2823   36.2358 C   0  0  0  0  0  0  0  0  0  0  0  0
   33.6854  -13.8696   36.0346 C   0  0  0  0  0  0  0  0  0  0  0  0
   34.4261  -12.9552   36.7296 O   0  0  0  0  0  0  0  0  0  0  0  0
   35.7219  -13.2931   37.0101 C   0  0  0  0  0  0  0  0  0  0  0  0
   36.2846  -14.3989   36.1332 C   0  0  0  0  0  0  0  0  0  0  0  0
   37.4937  -23.7378   37.2629 C   0  0  0  0  0  0  0  0  0  0  0  0
   36.2141  -23.1664   37.3684 O   0  0  0  0  0  0  0  0  0  0  0  0
   38.9423  -18.8976   36.7426 N   0  0  0  0  0  0  0  0  0  0  0  0
   39.3681  -19.1685   37.6486 H   0  0  0  0  0  0  0  0  0  0  0  0
   39.7738  -18.8837   35.5423 C   0  0  0  0  0  0  0  0  0  0  0  0
   39.1133  -19.7964   34.5297 C   0  0  0  0  0  0  0  0  0  0  0  0
   40.0006  -20.0827   33.3389 C   0  0  0  0  0  0  0  0  0  0  0  0
   41.2972  -20.5888   33.7510 N   0  0  0  0  0  0  0  0  0  0  0  0
   41.6616  -21.7978   33.0615 C   0  0  0  0  0  0  0  0  0  0  0  0
   41.3687  -20.7570   35.1911 C   0  0  0  0  0  0  0  0  0  0  0  0
   41.1794  -19.4176   35.8344 C   0  0  0  0  0  0  0  0  0  0  0  0
   33.6170  -22.4025   37.2613 O   0  0  0  0  0  0  0  0  0  0  0  0
   32.4163  -22.0796   37.8956 C   0  0  0  0  0  0  0  0  0  0  0  0
   31.2523  -22.7221   37.1745 C   0  0  0  0  0  0  0  0  0  0  0  0
   31.2968  -22.6041   35.6935 C   0  0  0  0  0  0  0  0  0  0  0  0
   31.3402  -21.3733   35.0860 N   0  0  0  0  0  0  0  0  0  0  0  0
   30.3588  -20.3926   35.2292 C   0  0  0  0  0  0  0  0  0  0  0  0
   31.1863  -19.0956   35.1021 C   0  0  0  0  0  0  0  0  0  0  0  0
   32.1141  -19.5131   33.9692 C   0  0  0  0  0  0  0  0  0  0  0  0
   32.2613  -21.0194   34.1075 C   0  0  0  0  0  0  0  0  0  0  0  0
 17 18  1  0  0  0
 18  1  1  0  0  0
  1  2  2  0  0  0
  2  3  1  0  0  0
  3  4  2  0  0  0
  4 19  1  0  0  0
 19 21  1  0  0  0
 21 22  1  0  0  0
 22 23  1  0  0  0
 23 24  1  0  0  0
 24 25  1  0  0  0
 24 26  1  0  0  0
 26 27  1  0  0  0
  4  5  1  0  0  0
  5  6  2  0  0  0
  6  7  1  0  0  0
  7  8  2  0  0  0
  8  9  1  0  0  0
  9 10  2  0  0  0
 10 28  1  0  0  0
 28 29  1  0  0  0
 29 30  1  0  0  0
 30 31  1  0  0  0
 31 32  1  0  0  0
 32 33  1  0  0  0
 33 34  1  0  0  0
 34 35  1  0  0  0
 35 36  1  0  0  0
  6 11  1  0  0  0
 11 12  2  0  0  0
 12 13  1  0  0  0
 13 14  1  0  0  0
 14 15  1  0  0  0
 15 16  1  0  0  0
 10  1  1  0  0  0
 36 32  1  0  0  0
 16 11  1  0  0  0
  8  3  1  0  0  0
 27 21  1  0  0  0
 19 20  1  0  0  0
M  END
> <minimizedAffinity>
-6.38115

> <CNNscore>
0.3549117744

> <CNNaffinity>
6.1272916794

> <CNN_VS>
2.1746480465

> <CNNaffinity_variance>
0.2361098975

$$$$
[H]C1=C(c2nc3c([H])c(OC([H])([H])C([H])([H])C([H])([H])N4C([H])([H])C([H])([H])C([H])([H])C4([H])[H])c(OC([H])([H])[H])c([H])c3c(N([H])C3([H])C([H])([H])C([H])([H])N(C([H])([H])[H])C([H])([H])C3([H])[H])c2[H])C([H])([H])C([H])([H])OC1([H])[H]


 36 40  0  0  0  0  0  0  0  0999 V2000
   40.0326  -19.3646   36.1214 C   0  0  0  0  0  0  0  0  0  0  0  0
   39.0717  -18.4046   36.4203 C   0  0  0  0  0  0  0  0  0  0  0  0
   37.7158  -18.6031   36.2530 C   0  0  0  0  0  0  0  0  0  0  0  0
   36.7732  -17.6440   36.5529 C   0  0  0  0  0  0  0  0  0  0  0  0
   35.4370  -17.9639   36.3415 C   0  0  0  0  0  0  0  0  0  0  0  0
   35.0858  -19.1774   35.8579 C   0  0  0  0  0  0  0  0  0  0  0  0
   36.0167  -20.1116   35.5666 N   0  0  0  0  0  0  0  0  0  0  0  0
   37.3068  -19.8400   35.7565 C   0  0  0  0  0  0  0  0  0  0  0  0
   38.2448  -20.8319   35.4437 C   0  0  0  0  0  0  0  0  0  0  0  0
   39.5809  -20.5714   35.6329 C   0  0  0  0  0  0  0  0  0  0  0  0
   33.6774  -19.5224   35.6313 C   0  0  0  0  0  0  0  0  0  0  0  0
   32.7804  -18.5655   35.4342 C   0  0  0  0  0  0  0  0  0  0  0  0
   31.3743  -18.9738   35.2116 C   0  0  0  0  0  0  0  0  0  0  0  0
   31.2087  -20.0693   34.4114 O   0  0  0  0  0  0  0  0  0  0  0  0
   32.2221  -20.9885   34.4034 C   0  0  0  0  0  0  0  0  0  0  0  0
   33.1525  -20.9055   35.6015 C   0  0  0  0  0  0  0  0  0  0  0  0
   41.9725  -17.9487   36.6483 C   0  0  0  0  0  0  0  0  0  0  0  0
   41.3711  -19.1667   36.2878 O   0  0  0  0  0  0  0  0  0  0  0  0
   37.1645  -16.3763   37.0462 N   0  0  0  0  0  0  0  0  0  0  0  0
   37.7846  -16.3323   37.8763 H   0  0  0  0  0  0  0  0  0  0  0  0
   36.7251  -15.1322   36.4206 C   0  0  0  0  0  0  0  0  0  0  0  0
   36.9380  -14.0236   37.4307 C   0  0  0  0  0  0  0  0  0  0  0  0
   36.2840  -12.7247   37.0154 C   0  0  0  0  0  0  0  0  0  0  0  0
   34.8765  -12.9107   36.7126 N   0  0  0  0  0  0  0  0  0  0  0  0
   34.0355  -11.9670   37.3995 C   0  0  0  0  0  0  0  0  0  0  0  0
   34.4553  -14.2773   36.9626 C   0  0  0  0  0  0  0  0  0  0  0  0
   35.2365  -15.1857   36.0636 C   0  0  0  0  0  0  0  0  0  0  0  0
   40.5108  -21.5482   35.3243 O   0  0  0  0  0  0  0  0  0  0  0  0
   40.4562  -22.1990   34.0906 C   0  0  0  0  0  0  0  0  0  0  0  0
   41.6718  -23.0800   33.9077 C   0  0  0  0  0  0  0  0  0  0  0  0
   42.2686  -23.0416   32.5469 C   0  0  0  0  0  0  0  0  0  0  0  0
   41.8099  -23.8708   31.5530 N   0  0  0  0  0  0  0  0  0  0  0  0
   41.2656  -25.1357   31.7754 C   0  0  0  0  0  0  0  0  0  0  0  0
   40.2477  -25.2499   30.6205 C   0  0  0  0  0  0  0  0  0  0  0  0
   41.0802  -24.6325   29.5050 C   0  0  0  0  0  0  0  0  0  0  0  0
   42.0019  -23.6411   30.1960 C   0  0  0  0  0  0  0  0  0  0  0  0
 17 18  1  0  0  0
 18  1  1  0  0  0
  1  2  2  0  0  0
  2  3  1  0  0  0
  3  4  2  0  0  0
  4 19  1  0  0  0
 19 21  1  0  0  0
 21 22  1  0  0  0
 22 23  1  0  0  0
 23 24  1  0  0  0
 24 25  1  0  0  0
 24 26  1  0  0  0
 26 27  1  0  0  0
  4  5  1  0  0  0
  5  6  2  0  0  0
  6  7  1  0  0  0
  7  8  2  0  0  0
  8  9  1  0  0  0
  9 10  2  0  0  0
 10 28  1  0  0  0
 28 29  1  0  0  0
 29 30  1  0  0  0
 30 31  1  0  0  0
 31 32  1  0  0  0
 32 33  1  0  0  0
 33 34  1  0  0  0
 34 35  1  0  0  0
 35 36  1  0  0  0
  6 11  1  0  0  0
 11 12  2  0  0  0
 12 13  1  0  0  0
 13 14  1  0  0  0
 14 15  1  0  0  0
 15 16  1  0  0  0
 10  1  1  0  0  0
 36 32  1  0  0  0
 16 11  1  0  0  0
  8  3  1  0  0  0
 27 21  1  0  0  0
 19 20  1  0  0  0
M  END
> <minimizedAffinity>
-6.37361

> <CNNscore>
0.3538415134

> <CNNaffinity>
6.2830810547

> <CNN_VS>
2.2232148647

> <CNNaffinity_variance>
0.0430590324

$$$$
[H]c1nc([H])c(-c2nc3c([H])c(OC([H])([H])C([H])([H])C([H])([H])N4C([H])([H])C([H])([H])C([H])([H])C4([H])[H])c(OC([H])([H])[H])c([H])c3c(N([H])C3([H])C([H])([H])C([H])([H])N(C([H])([H])[H])C([H])([H])C3([H])[H])c2[H])c([H])c1[H]


 36 40  0  0  0  0  0  0  0  0999 V2000
   36.0576  -13.8582   36.6919 C   0  0  0  0  0  0  0  0  0  0  0  0
   36.5815  -15.0601   36.2731 C   0  0  0  0  0  0  0  0  0  0  0  0
   35.7536  -16.1141   35.9563 C   0  0  0  0  0  0  0  0  0  0  0  0
   36.2404  -17.3331   35.5289 C   0  0  0  0  0  0  0  0  0  0  0  0
   35.3114  -18.3299   35.2307 C   0  0  0  0  0  0  0  0  0  0  0  0
   33.9571  -18.1369   35.3476 C   0  0  0  0  0  0  0  0  0  0  0  0
   33.5518  -16.9213   35.7706 N   0  0  0  0  0  0  0  0  0  0  0  0
   34.3747  -15.9109   36.0776 C   0  0  0  0  0  0  0  0  0  0  0  0
   33.8892  -14.6891   36.5013 C   0  0  0  0  0  0  0  0  0  0  0  0
   34.7084  -13.6338   36.8190 C   0  0  0  0  0  0  0  0  0  0  0  0
   32.9749  -19.1634   35.0423 C   0  0  0  0  0  0  0  0  0  0  0  0
   33.3304  -20.3610   34.4471 C   0  0  0  0  0  0  0  0  0  0  0  0
   32.3694  -21.2979   34.1782 C   0  0  0  0  0  0  0  0  0  0  0  0
   31.0447  -21.0729   34.4897 C   0  0  0  0  0  0  0  0  0  0  0  0
   30.7082  -19.9155   35.0638 N   0  0  0  0  0  0  0  0  0  0  0  0
   31.6483  -18.9851   35.3330 C   0  0  0  0  0  0  0  0  0  0  0  0
   38.2352  -13.0888   37.5066 C   0  0  0  0  0  0  0  0  0  0  0  0
   36.9471  -12.8202   37.0014 O   0  0  0  0  0  0  0  0  0  0  0  0
   37.6338  -17.5637   35.4265 N   0  0  0  0  0  0  0  0  0  0  0  0
   38.3484  -16.8537   35.5939 H   0  0  0  0  0  0  0  0  0  0  0  0
   38.1104  -18.9119   35.0596 C   0  0  0  0  0  0  0  0  0  0  0  0
   39.1773  -19.3536   36.0622 C   0  0  0  0  0  0  0  0  0  0  0  0
   40.0769  -20.4058   35.4336 C   0  0  0  0  0  0  0  0  0  0  0  0
   40.8436  -19.8261   34.3326 N   0  0  0  0  0  0  0  0  0  0  0  0
   41.0039  -20.7730   33.2692 C   0  0  0  0  0  0  0  0  0  0  0  0
   40.2234  -18.6142   33.8512 C   0  0  0  0  0  0  0  0  0  0  0  0
   38.7275  -18.8692   33.6719 C   0  0  0  0  0  0  0  0  0  0  0  0
   34.2224  -12.4111   37.2427 O   0  0  0  0  0  0  0  0  0  0  0  0
   33.0339  -12.3155   38.0547 C   0  0  0  0  0  0  0  0  0  0  0  0
   32.0049  -11.5467   37.2877 C   0  0  0  0  0  0  0  0  0  0  0  0
   30.7393  -11.2041   37.9503 C   0  0  0  0  0  0  0  0  0  0  0  0
   29.6375  -12.0670   37.9497 N   0  0  0  0  0  0  0  0  0  0  0  0
   29.1895  -12.6934   39.1303 C   0  0  0  0  0  0  0  0  0  0  0  0
   28.8614  -11.5175   40.0389 C   0  0  0  0  0  0  0  0  0  0  0  0
   28.2933  -10.5411   39.0000 C   0  0  0  0  0  0  0  0  0  0  0  0
   28.4564  -11.2103   37.6516 C   0  0  0  0  0  0  0  0  0  0  0  0
 17 18  1  0  0  0
 18  1  1  0  0  0
  1  2  2  0  0  0
  2  3  1  0  0  0
  3  4  2  0  0  0
  4 19  1  0  0  0
 19 21  1  0  0  0
 21 22  1  0  0  0
 22 23  1  0  0  0
 23 24  1  0  0  0
 24 25  1  0  0  0
 24 26  1  0  0  0
 26 27  1  0  0  0
  4  5  1  0  0  0
  5  6  2  0  0  0
  6  7  1  0  0  0
  7  8  2  0  0  0
  8  9  1  0  0  0
  9 10  2  0  0  0
 10 28  1  0  0  0
 28 29  1  0  0  0
 29 30  1  0  0  0
 30 31  1  0  0  0
 31 32  1  0  0  0
 32 33  1  0  0  0
 33 34  1  0  0  0
 34 35  1  0  0  0
 35 36  1  0  0  0
  6 11  1  0  0  0
 11 12  2  0  0  0
 12 13  1  0  0  0
 13 14  2  0  0  0
 14 15  1  0  0  0
 15 16  2  0  0  0
 10  1  1  0  0  0
 36 32  1  0  0  0
 16 11  1  0  0  0
  8  3  1  0  0  0
 27 21  1  0  0  0
 19 20  1  0  0  0
M  END
> <minimizedAffinity>
-8.14176

> <CNNscore>
0.8328104615

> <CNNaffinity>
7.3378667831

> <CNN_VS>
6.1110520363

> <CNNaffinity_variance>
0.0478100255

$$$$
[H]c1nc([H])c(-c2nc3c([H])c(OC([H])([H])C([H])([H])C([H])([H])N4C([H])([H])C([H])([H])C([H])([H])C4([H])[H])c(OC([H])([H])[H])c([H])c3c(N([H])C3([H])C([H])([H])C([H])([H])N(C([H])([H])[H])C([H])([H])C3([H])[H])c2[H])c([H])c1[H]


 36 40  0  0  0  0  0  0  0  0999 V2000
   36.0737  -13.8822   36.6885 C   0  0  0  0  0  0  0  0  0  0  0  0
   36.5857  -15.0686   36.2145 C   0  0  0  0  0  0  0  0  0  0  0  0
   35.7503  -16.1164   35.8972 C   0  0  0  0  0  0  0  0  0  0  0  0
   36.2251  -17.3198   35.4155 C   0  0  0  0  0  0  0  0  0  0  0  0
   35.2890  -18.3115   35.1222 C   0  0  0  0  0  0  0  0  0  0  0  0
   33.9394  -18.1283   35.2950 C   0  0  0  0  0  0  0  0  0  0  0  0
   33.5459  -16.9278   35.7691 N   0  0  0  0  0  0  0  0  0  0  0  0
   34.3762  -15.9233   36.0756 C   0  0  0  0  0  0  0  0  0  0  0  0
   33.9025  -14.7169   36.5536 C   0  0  0  0  0  0  0  0  0  0  0  0
   34.7294  -13.6679   36.8722 C   0  0  0  0  0  0  0  0  0  0  0  0
   32.9501  -19.1498   34.9956 C   0  0  0  0  0  0  0  0  0  0  0  0
   31.5957  -18.9303   35.1753 C   0  0  0  0  0  0  0  0  0  0  0  0
   30.7013  -19.9234   34.8796 C   0  0  0  0  0  0  0  0  0  0  0  0
   31.1234  -21.1470   34.4031 C   0  0  0  0  0  0  0  0  0  0  0  0
   32.4314  -21.3524   34.2319 N   0  0  0  0  0  0  0  0  0  0  0  0
   33.3215  -20.3797   34.5206 C   0  0  0  0  0  0  0  0  0  0  0  0
   38.2676  -13.1273   37.4723 C   0  0  0  0  0  0  0  0  0  0  0  0
   36.9705  -12.8499   36.9957 O   0  0  0  0  0  0  0  0  0  0  0  0
   37.6145  -17.5409   35.2545 N   0  0  0  0  0  0  0  0  0  0  0  0
   38.3224  -16.8060   35.2934 H   0  0  0  0  0  0  0  0  0  0  0  0
   38.0972  -18.9160   35.0186 C   0  0  0  0  0  0  0  0  0  0  0  0
   39.1730  -19.2511   36.0525 C   0  0  0  0  0  0  0  0  0  0  0  0
   40.0752  -20.3549   35.5242 C   0  0  0  0  0  0  0  0  0  0  0  0
   40.8314  -19.8819   34.3663 N   0  0  0  0  0  0  0  0  0  0  0  0
   40.9910  -20.9277   33.4000 C   0  0  0  0  0  0  0  0  0  0  0  0
   40.2007  -18.7266   33.7725 C   0  0  0  0  0  0  0  0  0  0  0  0
   38.7053  -19.0063   33.6293 C   0  0  0  0  0  0  0  0  0  0  0  0
   34.2553  -12.4606   37.3502 O   0  0  0  0  0  0  0  0  0  0  0  0
   32.8440  -12.2302   37.5413 C   0  0  0  0  0  0  0  0  0  0  0  0
   32.5029  -12.5708   38.9576 C   0  0  0  0  0  0  0  0  0  0  0  0
   31.2133  -13.2156   39.2386 C   0  0  0  0  0  0  0  0  0  0  0  0
   30.1261  -12.5129   39.7704 N   0  0  0  0  0  0  0  0  0  0  0  0
   28.7985  -12.8292   39.4176 C   0  0  0  0  0  0  0  0  0  0  0  0
   28.6679  -14.2842   39.8439 C   0  0  0  0  0  0  0  0  0  0  0  0
   29.5131  -14.2533   41.1246 C   0  0  0  0  0  0  0  0  0  0  0  0
   30.0941  -12.8583   41.2187 C   0  0  0  0  0  0  0  0  0  0  0  0
 17 18  1  0  0  0
 18  1  1  0  0  0
  1  2  2  0  0  0
  2  3  1  0  0  0
  3  4  2  0  0  0
  4 19  1  0  0  0
 19 21  1  0  0  0
 21 22  1  0  0  0
 22 23  1  0  0  0
 23 24  1  0  0  0
 24 25  1  0  0  0
 24 26  1  0  0  0
 26 27  1  0  0  0
  4  5  1  0  0  0
  5  6  2  0  0  0
  6  7  1  0  0  0
  7  8  2  0  0  0
  8  9  1  0  0  0
  9 10  2  0  0  0
 10 28  1  0  0  0
 28 29  1  0  0  0
 29 30  1  0  0  0
 30 31  1  0  0  0
 31 32  1  0  0  0
 32 33  1  0  0  0
 33 34  1  0  0  0
 34 35  1  0  0  0
 35 36  1  0  0  0
  6 11  1  0  0  0
 11 12  2  0  0  0
 12 13  1  0  0  0
 13 14  2  0  0  0
 14 15  1  0  0  0
 15 16  2  0  0  0
 10  1  1  0  0  0
 36 32  1  0  0  0
 16 11  1  0  0  0
  8  3  1  0  0  0
 27 21  1  0  0  0
 19 20  1  0  0  0
M  END
> <minimizedAffinity>
-7.81914

> <CNNscore>
0.7840575576

> <CNNaffinity>
7.0701475143

> <CNN_VS>
5.5434026718

> <CNNaffinity_variance>
0.1166044846

$$$$
[H]c1nc([H])c(-c2nc3c([H])c(OC([H])([H])C([H])([H])C([H])([H])N4C([H])([H])C([H])([H])C([H])([H])C4([H])[H])c(OC([H])([H])[H])c([H])c3c(N([H])C3([H])C([H])([H])C([H])([H])N(C([H])([H])[H])C([H])([H])C3([H])[H])c2[H])c([H])c1[H]


 36 40  0  0  0  0  0  0  0  0999 V2000
   36.0404  -14.1165   36.5452 C   0  0  0  0  0  0  0  0  0  0  0  0
   36.5228  -15.2692   35.9682 C   0  0  0  0  0  0  0  0  0  0  0  0
   35.6789  -16.3221   35.6924 C   0  0  0  0  0  0  0  0  0  0  0  0
   36.1237  -17.4923   35.1110 C   0  0  0  0  0  0  0  0  0  0  0  0
   35.1813  -18.4926   34.8720 C   0  0  0  0  0  0  0  0  0  0  0  0
   33.8538  -18.3489   35.1915 C   0  0  0  0  0  0  0  0  0  0  0  0
   33.4891  -17.1792   35.7569 N   0  0  0  0  0  0  0  0  0  0  0  0
   34.3275  -16.1692   36.0205 C   0  0  0  0  0  0  0  0  0  0  0  0
   33.8834  -14.9958   36.5984 C   0  0  0  0  0  0  0  0  0  0  0  0
   34.7188  -13.9420   36.8763 C   0  0  0  0  0  0  0  0  0  0  0  0
   32.8584  -19.3797   34.9506 C   0  0  0  0  0  0  0  0  0  0  0  0
   31.5225  -19.1919   35.2587 C   0  0  0  0  0  0  0  0  0  0  0  0
   30.6214  -20.1928   35.0139 C   0  0  0  0  0  0  0  0  0  0  0  0
   31.0186  -21.3932   34.4629 C   0  0  0  0  0  0  0  0  0  0  0  0
   32.3088  -21.5682   34.1679 N   0  0  0  0  0  0  0  0  0  0  0  0
   33.2053  -20.5875   34.4055 C   0  0  0  0  0  0  0  0  0  0  0  0
   38.1411  -13.3097   37.5115 C   0  0  0  0  0  0  0  0  0  0  0  0
   36.9445  -13.0772   36.8039 O   0  0  0  0  0  0  0  0  0  0  0  0
   37.4927  -17.6734   34.7974 N   0  0  0  0  0  0  0  0  0  0  0  0
   38.1301  -16.9168   34.5446 H   0  0  0  0  0  0  0  0  0  0  0  0
   38.0611  -19.0354   34.8359 C   0  0  0  0  0  0  0  0  0  0  0  0
   38.8608  -19.2056   36.1282 C   0  0  0  0  0  0  0  0  0  0  0  0
   39.8989  -20.3030   35.9559 C   0  0  0  0  0  0  0  0  0  0  0  0
   40.9005  -19.9040   34.9691 N   0  0  0  0  0  0  0  0  0  0  0  0
   41.3244  -21.0290   34.1896 C   0  0  0  0  0  0  0  0  0  0  0  0
   40.3988  -18.8504   34.1187 C   0  0  0  0  0  0  0  0  0  0  0  0
   38.9934  -19.2273   33.6518 C   0  0  0  0  0  0  0  0  0  0  0  0
   34.2742  -12.7677   37.4543 O   0  0  0  0  0  0  0  0  0  0  0  0
   33.0646  -12.7277   38.2396 C   0  0  0  0  0  0  0  0  0  0  0  0
   31.9503  -12.2609   37.3572 C   0  0  0  0  0  0  0  0  0  0  0  0
   31.8753  -10.8362   37.0073 C   0  0  0  0  0  0  0  0  0  0  0  0
   32.3548   -9.8316   37.8555 N   0  0  0  0  0  0  0  0  0  0  0  0
   33.6735   -9.3446   37.7517 C   0  0  0  0  0  0  0  0  0  0  0  0
   33.7334   -8.8190   36.3248 C   0  0  0  0  0  0  0  0  0  0  0  0
   32.3131   -8.2512   36.2005 C   0  0  0  0  0  0  0  0  0  0  0  0
   31.5992   -8.6017   37.4890 C   0  0  0  0  0  0  0  0  0  0  0  0
 17 18  1  0  0  0
 18  1  1  0  0  0
  1  2  2  0  0  0
  2  3  1  0  0  0
  3  4  2  0  0  0
  4 19  1  0  0  0
 19 21  1  0  0  0
 21 22  1  0  0  0
 22 23  1  0  0  0
 23 24  1  0  0  0
 24 25  1  0  0  0
 24 26  1  0  0  0
 26 27  1  0  0  0
  4  5  1  0  0  0
  5  6  2  0  0  0
  6  7  1  0  0  0
  7  8  2  0  0  0
  8  9  1  0  0  0
  9 10  2  0  0  0
 10 28  1  0  0  0
 28 29  1  0  0  0
 29 30  1  0  0  0
 30 31  1  0  0  0
 31 32  1  0  0  0
 32 33  1  0  0  0
 33 34  1  0  0  0
 34 35  1  0  0  0
 35 36  1  0  0  0
  6 11  1  0  0  0
 11 12  2  0  0  0
 12 13  1  0  0  0
 13 14  2  0  0  0
 14 15  1  0  0  0
 15 16  2  0  0  0
 10  1  1  0  0  0
 36 32  1  0  0  0
 16 11  1  0  0  0
  8  3  1  0  0  0
 27 21  1  0  0  0
 19 20  1  0  0  0
M  END
> <minimizedAffinity>
-7.03041

> <CNNscore>
0.7669820189

> <CNNaffinity>
7.3401517868

> <CNN_VS>
5.6297645569

> <CNNaffinity_variance>
0.0766983256

$$$$
[H]c1nc([H])c(-c2nc3c([H])c(OC([H])([H])C([H])([H])C([H])([H])N4C([H])([H])C([H])([H])C([H])([H])C4([H])[H])c(OC([H])([H])[H])c([H])c3c(N([H])C3([H])C([H])([H])C([H])([H])N(C([H])([H])[H])C([H])([H])C3([H])[H])c2[H])c([H])c1[H]


 36 40  0  0  0  0  0  0  0  0999 V2000
   35.9304  -14.6631   36.1400 C   0  0  0  0  0  0  0  0  0  0  0  0
   36.3762  -15.8708   35.6530 C   0  0  0  0  0  0  0  0  0  0  0  0
   35.5044  -16.9228   35.4807 C   0  0  0  0  0  0  0  0  0  0  0  0
   35.9123  -18.1474   34.9913 C   0  0  0  0  0  0  0  0  0  0  0  0
   34.9438  -19.1417   34.8529 C   0  0  0  0  0  0  0  0  0  0  0  0
   33.6261  -18.9409   35.1823 C   0  0  0  0  0  0  0  0  0  0  0  0
   33.2980  -17.7202   35.6543 N   0  0  0  0  0  0  0  0  0  0  0  0
   34.1632  -16.7117   35.8182 C   0  0  0  0  0  0  0  0  0  0  0  0
   33.7560  -15.4842   36.3037 C   0  0  0  0  0  0  0  0  0  0  0  0
   34.6195  -14.4309   36.4782 C   0  0  0  0  0  0  0  0  0  0  0  0
   32.6039  -19.9647   35.0456 C   0  0  0  0  0  0  0  0  0  0  0  0
   31.3092  -19.7690   35.4930 C   0  0  0  0  0  0  0  0  0  0  0  0
   30.3806  -20.7633   35.3425 C   0  0  0  0  0  0  0  0  0  0  0  0
   30.7094  -21.9648   34.7503 C   0  0  0  0  0  0  0  0  0  0  0  0
   31.9602  -22.1474   34.3208 N   0  0  0  0  0  0  0  0  0  0  0  0
   32.8833  -21.1733   34.4646 C   0  0  0  0  0  0  0  0  0  0  0  0
   37.7091  -13.5701   37.4203 C   0  0  0  0  0  0  0  0  0  0  0  0
   36.8618  -13.6274   36.2954 O   0  0  0  0  0  0  0  0  0  0  0  0
   37.2707  -18.3859   34.6702 N   0  0  0  0  0  0  0  0  0  0  0  0
   37.7065  -18.1271   33.7838 H   0  0  0  0  0  0  0  0  0  0  0  0
   38.1359  -19.0465   35.6676 C   0  0  0  0  0  0  0  0  0  0  0  0
   38.2313  -20.5364   35.3361 C   0  0  0  0  0  0  0  0  0  0  0  0
   38.5913  -21.3244   36.5855 C   0  0  0  0  0  0  0  0  0  0  0  0
   37.5081  -21.2476   37.5638 N   0  0  0  0  0  0  0  0  0  0  0  0
   38.0290  -21.1908   38.8974 C   0  0  0  0  0  0  0  0  0  0  0  0
   36.6506  -20.1163   37.2994 C   0  0  0  0  0  0  0  0  0  0  0  0
   37.5252  -18.8885   37.0497 C   0  0  0  0  0  0  0  0  0  0  0  0
   34.2119  -13.2025   36.9638 O   0  0  0  0  0  0  0  0  0  0  0  0
   33.3744  -13.0974   38.1338 C   0  0  0  0  0  0  0  0  0  0  0  0
   32.5635  -11.8456   38.0167 C   0  0  0  0  0  0  0  0  0  0  0  0
   31.1028  -11.9350   38.1447 C   0  0  0  0  0  0  0  0  0  0  0  0
   30.2338  -11.3722   37.2031 N   0  0  0  0  0  0  0  0  0  0  0  0
   28.8564  -11.2259   37.4642 C   0  0  0  0  0  0  0  0  0  0  0  0
   28.8345  -10.3450   38.7050 C   0  0  0  0  0  0  0  0  0  0  0  0
   30.0218   -9.4258   38.3882 C   0  0  0  0  0  0  0  0  0  0  0  0
   30.6273   -9.9397   37.0990 C   0  0  0  0  0  0  0  0  0  0  0  0
 17 18  1  0  0  0
 18  1  1  0  0  0
  1  2  2  0  0  0
  2  3  1  0  0  0
  3  4  2  0  0  0
  4 19  1  0  0  0
 19 21  1  0  0  0
 21 22  1  0  0  0
 22 23  1  0  0  0
 23 24  1  0  0  0
 24 25  1  0  0  0
 24 26  1  0  0  0
 26 27  1  0  0  0
  4  5  1  0  0  0
  5  6  2  0  0  0
  6  7  1  0  0  0
  7  8  2  0  0  0
  8  9  1  0  0  0
  9 10  2  0  0  0
 10 28  1  0  0  0
 28 29  1  0  0  0
 29 30  1  0  0  0
 30 31  1  0  0  0
 31 32  1  0  0  0
 32 33  1  0  0  0
 33 34  1  0  0  0
 34 35  1  0  0  0
 35 36  1  0  0  0
  6 11  1  0  0  0
 11 12  2  0  0  0
 12 13  1  0  0  0
 13 14  2  0  0  0
 14 15  1  0  0  0
 15 16  2  0  0  0
 10  1  1  0  0  0
 36 32  1  0  0  0
 16 11  1  0  0  0
  8  3  1  0  0  0
 27 21  1  0  0  0
 19 20  1  0  0  0
M  END
> <minimizedAffinity>
-7.18408

> <CNNscore>
0.6303893924

> <CNNaffinity>
6.9021239281

> <CNN_VS>
4.3510255814

> <CNNaffinity_variance>
0.1086298972

$$$$
[H]c1nc([H])c(-c2nc3c([H])c(OC([H])([H])C([H])([H])C([H])([H])N4C([H])([H])C([H])([H])C([H])([H])C4([H])[H])c(OC([H])([H])[H])c([H])c3c(N([H])C3([H])C([H])([H])C([H])([H])N(C([H])([H])[H])C([H])([H])C3([H])[H])c2[H])c([H])c1[H]


 36 40  0  0  0  0  0  0  0  0999 V2000
   36.6166  -22.0572   37.8353 C   0  0  0  0  0  0  0  0  0  0  0  0
   37.3660  -21.2721   36.9889 C   0  0  0  0  0  0  0  0  0  0  0  0
   37.1453  -19.9149   36.9115 C   0  0  0  0  0  0  0  0  0  0  0  0
   37.8782  -19.0938   36.0784 C   0  0  0  0  0  0  0  0  0  0  0  0
   37.5732  -17.7327   36.0828 C   0  0  0  0  0  0  0  0  0  0  0  0
   36.5868  -17.1989   36.8747 C   0  0  0  0  0  0  0  0  0  0  0  0
   35.9106  -18.0593   37.6642 N   0  0  0  0  0  0  0  0  0  0  0  0
   36.1388  -19.3773   37.7210 C   0  0  0  0  0  0  0  0  0  0  0  0
   35.4092  -20.1999   38.5573 C   0  0  0  0  0  0  0  0  0  0  0  0
   35.6236  -21.5537   38.6398 C   0  0  0  0  0  0  0  0  0  0  0  0
   36.2547  -15.7843   36.8921 C   0  0  0  0  0  0  0  0  0  0  0  0
   37.1256  -14.8354   37.3980 C   0  0  0  0  0  0  0  0  0  0  0  0
   36.7683  -13.5141   37.3934 C   0  0  0  0  0  0  0  0  0  0  0  0
   35.5505  -13.1046   36.8918 C   0  0  0  0  0  0  0  0  0  0  0  0
   34.7147  -14.0249   36.4052 N   0  0  0  0  0  0  0  0  0  0  0  0
   35.0576  -15.3305   36.4052 C   0  0  0  0  0  0  0  0  0  0  0  0
   36.8354  -24.2182   36.7040 C   0  0  0  0  0  0  0  0  0  0  0  0
   36.8843  -23.4324   37.8731 O   0  0  0  0  0  0  0  0  0  0  0  0
   38.8821  -19.6258   35.2331 N   0  0  0  0  0  0  0  0  0  0  0  0
   38.7168  -20.3396   34.5219 H   0  0  0  0  0  0  0  0  0  0  0  0
   40.2659  -19.1287   35.3657 C   0  0  0  0  0  0  0  0  0  0  0  0
   41.1970  -20.0203   34.5430 C   0  0  0  0  0  0  0  0  0  0  0  0
   42.6146  -19.9309   35.0852 C   0  0  0  0  0  0  0  0  0  0  0  0
   42.6800  -20.4966   36.4312 N   0  0  0  0  0  0  0  0  0  0  0  0
   43.5966  -19.7597   37.2497 C   0  0  0  0  0  0  0  0  0  0  0  0
   41.3708  -20.5405   37.0388 C   0  0  0  0  0  0  0  0  0  0  0  0
   40.6873  -19.1908   36.8240 C   0  0  0  0  0  0  0  0  0  0  0  0
   34.8937  -22.3766   39.4769 O   0  0  0  0  0  0  0  0  0  0  0  0
   33.6692  -21.9262   40.0927 C   0  0  0  0  0  0  0  0  0  0  0  0
   32.6152  -22.9590   39.8463 C   0  0  0  0  0  0  0  0  0  0  0  0
   32.1611  -23.7877   40.9709 C   0  0  0  0  0  0  0  0  0  0  0  0
   32.1035  -23.3021   42.2822 N   0  0  0  0  0  0  0  0  0  0  0  0
   31.0532  -22.4677   42.7153 C   0  0  0  0  0  0  0  0  0  0  0  0
   29.8166  -23.3227   42.4791 C   0  0  0  0  0  0  0  0  0  0  0  0
   30.3825  -24.7003   42.8493 C   0  0  0  0  0  0  0  0  0  0  0  0
   31.8538  -24.4929   43.1410 C   0  0  0  0  0  0  0  0  0  0  0  0
 17 18  1  0  0  0
 18  1  1  0  0  0
  1  2  2  0  0  0
  2  3  1  0  0  0
  3  4  2  0  0  0
  4 19  1  0  0  0
 19 21  1  0  0  0
 21 22  1  0  0  0
 22 23  1  0  0  0
 23 24  1  0  0  0
 24 25  1  0  0  0
 24 26  1  0  0  0
 26 27  1  0  0  0
  4  5  1  0  0  0
  5  6  2  0  0  0
  6  7  1  0  0  0
  7  8  2  0  0  0
  8  9  1  0  0  0
  9 10  2  0  0  0
 10 28  1  0  0  0
 28 29  1  0  0  0
 29 30  1  0  0  0
 30 31  1  0  0  0
 31 32  1  0  0  0
 32 33  1  0  0  0
 33 34  1  0  0  0
 34 35  1  0  0  0
 35 36  1  0  0  0
  6 11  1  0  0  0
 11 12  2  0  0  0
 12 13  1  0  0  0
 13 14  2  0  0  0
 14 15  1  0  0  0
 15 16  2  0  0  0
 10  1  1  0  0  0
 36 32  1  0  0  0
 16 11  1  0  0  0
  8  3  1  0  0  0
 27 21  1  0  0  0
 19 20  1  0  0  0
M  END
> <minimizedAffinity>
-5.04547

> <CNNscore>
0.4083541036

> <CNNaffinity>
5.7029032707

> <CNN_VS>
2.3288040161

> <CNNaffinity_variance>
0.0854103193

$$$$
[H]c1nc([H])c(-c2nc3c([H])c(OC([H])([H])C([H])([H])C([H])([H])N4C([H])([H])C([H])([H])C([H])([H])C4([H])[H])c(OC([H])([H])[H])c([H])c3c(N([H])C3([H])C([H])([H])C([H])([H])N(C([H])([H])[H])C([H])([H])C3([H])[H])c2[H])c([H])c1[H]


 36 40  0  0  0  0  0  0  0  0999 V2000
   38.8388  -21.8699   37.0250 C   0  0  0  0  0  0  0  0  0  0  0  0
   37.5756  -21.4834   36.6384 C   0  0  0  0  0  0  0  0  0  0  0  0
   37.2119  -20.1552   36.6566 C   0  0  0  0  0  0  0  0  0  0  0  0
   35.9568  -19.7279   36.2726 C   0  0  0  0  0  0  0  0  0  0  0  0
   35.6973  -18.3584   36.3261 C   0  0  0  0  0  0  0  0  0  0  0  0
   36.6342  -17.4443   36.7406 C   0  0  0  0  0  0  0  0  0  0  0  0
   37.8396  -17.9320   37.1011 N   0  0  0  0  0  0  0  0  0  0  0  0
   38.1712  -19.2289   37.0799 C   0  0  0  0  0  0  0  0  0  0  0  0
   39.4281  -19.6580   37.4597 C   0  0  0  0  0  0  0  0  0  0  0  0
   39.7978  -20.9804   37.4443 C   0  0  0  0  0  0  0  0  0  0  0  0
   36.3818  -16.0147   36.8035 C   0  0  0  0  0  0  0  0  0  0  0  0
   37.1969  -15.1596   37.5242 C   0  0  0  0  0  0  0  0  0  0  0  0
   36.9185  -13.8198   37.5541 C   0  0  0  0  0  0  0  0  0  0  0  0
   35.8356  -13.2993   36.8769 C   0  0  0  0  0  0  0  0  0  0  0  0
   35.0530  -14.1294   36.1834 N   0  0  0  0  0  0  0  0  0  0  0  0
   35.3189  -15.4522   36.1476 C   0  0  0  0  0  0  0  0  0  0  0  0
   38.2842  -24.2008   37.5319 C   0  0  0  0  0  0  0  0  0  0  0  0
   39.1541  -23.2350   36.9869 O   0  0  0  0  0  0  0  0  0  0  0  0
   34.9659  -20.6548   35.8671 N   0  0  0  0  0  0  0  0  0  0  0  0
   34.9530  -21.1232   34.9599 H   0  0  0  0  0  0  0  0  0  0  0  0
   33.8717  -20.9862   36.8011 C   0  0  0  0  0  0  0  0  0  0  0  0
   34.3989  -20.9083   38.2345 C   0  0  0  0  0  0  0  0  0  0  0  0
   33.5418  -21.7674   39.1505 C   0  0  0  0  0  0  0  0  0  0  0  0
   33.6798  -23.1791   38.7982 N   0  0  0  0  0  0  0  0  0  0  0  0
   32.4347  -23.8691   38.9609 C   0  0  0  0  0  0  0  0  0  0  0  0
   34.1781  -23.3306   37.4514 C   0  0  0  0  0  0  0  0  0  0  0  0
   33.3884  -22.4009   36.5312 C   0  0  0  0  0  0  0  0  0  0  0  0
   41.0557  -21.4095   37.8241 O   0  0  0  0  0  0  0  0  0  0  0  0
   42.2210  -21.1230   37.0232 C   0  0  0  0  0  0  0  0  0  0  0  0
   41.8233  -20.1625   35.9472 C   0  0  0  0  0  0  0  0  0  0  0  0
   41.4963  -20.6890   34.6153 C   0  0  0  0  0  0  0  0  0  0  0  0
   41.6354  -19.9218   33.4531 N   0  0  0  0  0  0  0  0  0  0  0  0
   40.7706  -20.0857   32.3522 C   0  0  0  0  0  0  0  0  0  0  0  0
   39.4007  -19.7905   32.9455 C   0  0  0  0  0  0  0  0  0  0  0  0
   39.7795  -18.6662   33.9190 C   0  0  0  0  0  0  0  0  0  0  0  0
   41.2857  -18.5288   33.8470 C   0  0  0  0  0  0  0  0  0  0  0  0
 17 18  1  0  0  0
 18  1  1  0  0  0
  1  2  2  0  0  0
  2  3  1  0  0  0
  3  4  2  0  0  0
  4 19  1  0  0  0
 19 21  1  0  0  0
 21 22  1  0  0  0
 22 23  1  0  0  0
 23 24  1  0  0  0
 24 25  1  0  0  0
 24 26  1  0  0  0
 26 27  1  0  0  0
  4  5  1  0  0  0
  5  6  2  0  0  0
  6  7  1  0  0  0
  7  8  2  0  0  0
  8  9  1  0  0  0
  9 10  2  0  0  0
 10 28  1  0  0  0
 28 29  1  0  0  0
 29 30  1  0  0  0
 30 31  1  0  0  0
 31 32  1  0  0  0
 32 33  1  0  0  0
 33 34  1  0  0  0
 34 35  1  0  0  0
 35 36  1  0  0  0
  6 11  1  0  0  0
 11 12  2  0  0  0
 12 13  1  0  0  0
 13 14  2  0  0  0
 14 15  1  0  0  0
 15 16  2  0  0  0
 10  1  1  0  0  0
 36 32  1  0  0  0
 16 11  1  0  0  0
  8  3  1  0  0  0
 27 21  1  0  0  0
 19 20  1  0  0  0
M  END
> <minimizedAffinity>
-5.16408

> <CNNscore>
0.3911847472

> <CNNaffinity>
6.0598225594

> <CNN_VS>
2.3705101013

> <CNNaffinity_variance>
0.1399944723

$$$$
[H]c1nc([H])c(-c2nc3c([H])c(OC([H])([H])C([H])([H])C([H])([H])N4C([H])([H])C([H])([H])C([H])([H])C4([H])[H])c(OC([H])([H])[H])c([H])c3c(N([H])C3([H])C([H])([H])C([H])([H])N(C([H])([H])[H])C([H])([H])C3([H])[H])c2[H])c([H])c1[H]


 36 40  0  0  0  0  0  0  0  0999 V2000
   32.4419  -21.0333   35.4530 C   0  0  0  0  0  0  0  0  0  0  0  0
   33.7368  -20.6751   35.7520 C   0  0  0  0  0  0  0  0  0  0  0  0
   34.0846  -19.3495   35.8878 C   0  0  0  0  0  0  0  0  0  0  0  0
   35.3709  -18.9508   36.1910 C   0  0  0  0  0  0  0  0  0  0  0  0
   35.6108  -17.5818   36.3093 C   0  0  0  0  0  0  0  0  0  0  0  0
   34.6257  -16.6412   36.1367 C   0  0  0  0  0  0  0  0  0  0  0  0
   33.3920  -17.1018   35.8423 N   0  0  0  0  0  0  0  0  0  0  0  0
   33.0761  -18.3961   35.7106 C   0  0  0  0  0  0  0  0  0  0  0  0
   31.7886  -18.7972   35.4114 C   0  0  0  0  0  0  0  0  0  0  0  0
   31.4344  -20.1168   35.2745 C   0  0  0  0  0  0  0  0  0  0  0  0
   34.8571  -15.2115   36.2554 C   0  0  0  0  0  0  0  0  0  0  0  0
   33.8136  -14.3041   36.3066 C   0  0  0  0  0  0  0  0  0  0  0  0
   34.0813  -12.9664   36.4182 C   0  0  0  0  0  0  0  0  0  0  0  0
   35.3776  -12.4995   36.4813 C   0  0  0  0  0  0  0  0  0  0  0  0
   36.3799  -13.3800   36.4313 N   0  0  0  0  0  0  0  0  0  0  0  0
   36.1266  -14.7012   36.3212 C   0  0  0  0  0  0  0  0  0  0  0  0
   31.8100  -22.9584   34.0774 C   0  0  0  0  0  0  0  0  0  0  0  0
   32.1447  -22.3971   35.3262 O   0  0  0  0  0  0  0  0  0  0  0  0
   36.4087  -19.9015   36.3470 N   0  0  0  0  0  0  0  0  0  0  0  0
   36.4053  -20.8316   35.9256 H   0  0  0  0  0  0  0  0  0  0  0  0
   37.5862  -19.5472   37.1641 C   0  0  0  0  0  0  0  0  0  0  0  0
   38.7920  -19.3539   36.2435 C   0  0  0  0  0  0  0  0  0  0  0  0
   40.0799  -19.5666   37.0231 C   0  0  0  0  0  0  0  0  0  0  0  0
   40.1858  -20.9577   37.4587 N   0  0  0  0  0  0  0  0  0  0  0  0
   40.7926  -21.0412   38.7540 C   0  0  0  0  0  0  0  0  0  0  0  0
   38.8934  -21.6014   37.4552 C   0  0  0  0  0  0  0  0  0  0  0  0
   37.8852  -20.6764   38.1355 C   0  0  0  0  0  0  0  0  0  0  0  0
   30.1459  -20.5180   34.9754 O   0  0  0  0  0  0  0  0  0  0  0  0
   29.1569  -20.7011   36.0097 C   0  0  0  0  0  0  0  0  0  0  0  0
   28.6448  -22.1042   35.9229 C   0  0  0  0  0  0  0  0  0  0  0  0
   28.8926  -23.0178   37.0462 C   0  0  0  0  0  0  0  0  0  0  0  0
   29.3824  -22.5715   38.2789 N   0  0  0  0  0  0  0  0  0  0  0  0
   28.8289  -23.0141   39.4974 C   0  0  0  0  0  0  0  0  0  0  0  0
   29.0247  -24.5220   39.4352 C   0  0  0  0  0  0  0  0  0  0  0  0
   30.3901  -24.5749   38.7365 C   0  0  0  0  0  0  0  0  0  0  0  0
   30.7520  -23.1441   38.3981 C   0  0  0  0  0  0  0  0  0  0  0  0
 17 18  1  0  0  0
 18  1  1  0  0  0
  1  2  2  0  0  0
  2  3  1  0  0  0
  3  4  2  0  0  0
  4 19  1  0  0  0
 19 21  1  0  0  0
 21 22  1  0  0  0
 22 23  1  0  0  0
 23 24  1  0  0  0
 24 25  1  0  0  0
 24 26  1  0  0  0
 26 27  1  0  0  0
  4  5  1  0  0  0
  5  6  2  0  0  0
  6  7  1  0  0  0
  7  8  2  0  0  0
  8  9  1  0  0  0
  9 10  2  0  0  0
 10 28  1  0  0  0
 28 29  1  0  0  0
 29 30  1  0  0  0
 30 31  1  0  0  0
 31 32  1  0  0  0
 32 33  1  0  0  0
 33 34  1  0  0  0
 34 35  1  0  0  0
 35 36  1  0  0  0
  6 11  1  0  0  0
 11 12  2  0  0  0
 12 13  1  0  0  0
 13 14  2  0  0  0
 14 15  1  0  0  0
 15 16  2  0  0  0
 10  1  1  0  0  0
 36 32  1  0  0  0
 16 11  1  0  0  0
  8  3  1  0  0  0
 27 21  1  0  0  0
 19 20  1  0  0  0
M  END
> <minimizedAffinity>
-5.87131

> <CNNscore>
0.3781410158

> <CNNaffinity>
5.7822442055

> <CNN_VS>
2.1865036488

> <CNNaffinity_variance>
0.8475057483

$$$$
[H]c1nc([H])c(-c2nc3c([H])c(OC([H])([H])C([H])([H])C([H])([H])N4C([H])([H])C([H])([H])C([H])([H])C4([H])[H])c(OC([H])([H])[H])c([H])c3c(N([H])C3([H])C([H])([H])C([H])([H])N(C([H])([H])[H])C([H])([H])C3([H])[H])c2[H])c([H])c1[H]


 36 40  0  0  0  0  0  0  0  0999 V2000
   38.1578  -20.8834   36.5348 C   0  0  0  0  0  0  0  0  0  0  0  0
   36.9198  -20.5794   36.0157 C   0  0  0  0  0  0  0  0  0  0  0  0
   36.4342  -19.2917   36.0672 C   0  0  0  0  0  0  0  0  0  0  0  0
   35.2000  -18.9468   35.5541 C   0  0  0  0  0  0  0  0  0  0  0  0
   34.8094  -17.6116   35.6563 C   0  0  0  0  0  0  0  0  0  0  0  0
   35.6003  -16.6527   36.2394 C   0  0  0  0  0  0  0  0  0  0  0  0
   36.7938  -17.0602   36.7193 N   0  0  0  0  0  0  0  0  0  0  0  0
   37.2450  -18.3194   36.6627 C   0  0  0  0  0  0  0  0  0  0  0  0
   38.4816  -18.6656   37.1717 C   0  0  0  0  0  0  0  0  0  0  0  0
   38.9723  -19.9473   37.1241 C   0  0  0  0  0  0  0  0  0  0  0  0
   35.2098  -15.2578   36.3552 C   0  0  0  0  0  0  0  0  0  0  0  0
   33.8940  -14.8532   36.2151 C   0  0  0  0  0  0  0  0  0  0  0  0
   33.5746  -13.5274   36.3322 C   0  0  0  0  0  0  0  0  0  0  0  0
   34.5425  -12.5788   36.5887 C   0  0  0  0  0  0  0  0  0  0  0  0
   35.8101  -12.9755   36.7228 N   0  0  0  0  0  0  0  0  0  0  0  0
   36.1355  -14.2805   36.6090 C   0  0  0  0  0  0  0  0  0  0  0  0
   39.0150  -22.7699   35.2295 C   0  0  0  0  0  0  0  0  0  0  0  0
   38.6014  -22.2105   36.4553 O   0  0  0  0  0  0  0  0  0  0  0  0
   34.3560  -19.9237   34.9723 N   0  0  0  0  0  0  0  0  0  0  0  0
   34.6388  -20.5546   34.2209 H   0  0  0  0  0  0  0  0  0  0  0  0
   32.9732  -20.0623   35.4706 C   0  0  0  0  0  0  0  0  0  0  0  0
   32.9853  -20.9043   36.7472 C   0  0  0  0  0  0  0  0  0  0  0  0
   31.6232  -21.5456   36.9592 C   0  0  0  0  0  0  0  0  0  0  0  0
   31.3470  -22.5131   35.8991 N   0  0  0  0  0  0  0  0  0  0  0  0
   29.9582  -22.5005   35.5469 C   0  0  0  0  0  0  0  0  0  0  0  0
   32.1722  -22.2622   34.7410 C   0  0  0  0  0  0  0  0  0  0  0  0
   32.1277  -20.7680   34.4241 C   0  0  0  0  0  0  0  0  0  0  0  0
   40.2099  -20.2935   37.6332 O   0  0  0  0  0  0  0  0  0  0  0  0
   41.2949  -19.3439   37.6814 C   0  0  0  0  0  0  0  0  0  0  0  0
   41.6370  -18.9541   36.2781 C   0  0  0  0  0  0  0  0  0  0  0  0
   41.6595  -19.9943   35.2411 C   0  0  0  0  0  0  0  0  0  0  0  0
   41.8399  -19.6954   33.8858 N   0  0  0  0  0  0  0  0  0  0  0  0
   41.1007  -20.3507   32.8803 C   0  0  0  0  0  0  0  0  0  0  0  0
   39.6602  -20.0206   33.2438 C   0  0  0  0  0  0  0  0  0  0  0  0
   39.8452  -18.5819   33.7452 C   0  0  0  0  0  0  0  0  0  0  0  0
   41.3336  -18.3059   33.7101 C   0  0  0  0  0  0  0  0  0  0  0  0
 17 18  1  0  0  0
 18  1  1  0  0  0
  1  2  2  0  0  0
  2  3  1  0  0  0
  3  4  2  0  0  0
  4 19  1  0  0  0
 19 21  1  0  0  0
 21 22  1  0  0  0
 22 23  1  0  0  0
 23 24  1  0  0  0
 24 25  1  0  0  0
 24 26  1  0  0  0
 26 27  1  0  0  0
  4  5  1  0  0  0
  5  6  2  0  0  0
  6  7  1  0  0  0
  7  8  2  0  0  0
  8  9  1  0  0  0
  9 10  2  0  0  0
 10 28  1  0  0  0
 28 29  1  0  0  0
 29 30  1  0  0  0
 30 31  1  0  0  0
 31 32  1  0  0  0
 32 33  1  0  0  0
 33 34  1  0  0  0
 34 35  1  0  0  0
 35 36  1  0  0  0
  6 11  1  0  0  0
 11 12  2  0  0  0
 12 13  1  0  0  0
 13 14  2  0  0  0
 14 15  1  0  0  0
 15 16  2  0  0  0
 10  1  1  0  0  0
 36 32  1  0  0  0
 16 11  1  0  0  0
  8  3  1  0  0  0
 27 21  1  0  0  0
 19 20  1  0  0  0
M  END
> <minimizedAffinity>
-6.47557

> <CNNscore>
0.3521379828

> <CNNaffinity>
6.2363061905

> <CNN_VS>
2.1960403919

> <CNNaffinity_variance>
0.3412990570

$$$$
[H]c1nc([H])c(-c2nc3c([H])c(OC([H])([H])C([H])([H])C([H])([H])N4C([H])([H])C([H])([H])C([H])([H])C4([H])[H])c(OC([H])([H])[H])c([H])c3c(N([H])C3([H])C([H])([H])C([H])([H])N(C([H])([H])[H])C([H])([H])C3([H])[H])c2[H])c([H])c1[H]


 36 40  0  0  0  0  0  0  0  0999 V2000
   35.9814  -22.2192   37.6421 C   0  0  0  0  0  0  0  0  0  0  0  0
   37.0488  -21.3762   37.4316 C   0  0  0  0  0  0  0  0  0  0  0  0
   36.8520  -20.0239   37.2612 C   0  0  0  0  0  0  0  0  0  0  0  0
   37.8966  -19.1461   37.0521 C   0  0  0  0  0  0  0  0  0  0  0  0
   37.5830  -17.7958   36.8964 C   0  0  0  0  0  0  0  0  0  0  0  0
   36.2938  -17.3261   36.9446 C   0  0  0  0  0  0  0  0  0  0  0  0
   35.3227  -18.2396   37.1524 N   0  0  0  0  0  0  0  0  0  0  0  0
   35.5360  -19.5517   37.3114 C   0  0  0  0  0  0  0  0  0  0  0  0
   34.4923  -20.4311   37.5251 C   0  0  0  0  0  0  0  0  0  0  0  0
   34.6809  -21.7805   37.6956 C   0  0  0  0  0  0  0  0  0  0  0  0
   35.9483  -15.9238   36.7840 C   0  0  0  0  0  0  0  0  0  0  0  0
   34.7145  -15.5259   36.3002 C   0  0  0  0  0  0  0  0  0  0  0  0
   34.4350  -14.1927   36.1659 C   0  0  0  0  0  0  0  0  0  0  0  0
   35.3628  -13.2301   36.5047 C   0  0  0  0  0  0  0  0  0  0  0  0
   36.5514  -13.6204   36.9709 N   0  0  0  0  0  0  0  0  0  0  0  0
   36.8369  -14.9326   37.1069 C   0  0  0  0  0  0  0  0  0  0  0  0
   36.3814  -24.4435   36.6986 C   0  0  0  0  0  0  0  0  0  0  0  0
   36.2404  -23.5865   37.8087 O   0  0  0  0  0  0  0  0  0  0  0  0
   39.2317  -19.6111   36.9719 N   0  0  0  0  0  0  0  0  0  0  0  0
   39.7691  -19.9579   37.7680 H   0  0  0  0  0  0  0  0  0  0  0  0
   39.9123  -19.6092   35.6618 C   0  0  0  0  0  0  0  0  0  0  0  0
   38.9724  -20.2013   34.6108 C   0  0  0  0  0  0  0  0  0  0  0  0
   39.7777  -20.7466   33.4422 C   0  0  0  0  0  0  0  0  0  0  0  0
   40.5900  -21.8831   33.8718 N   0  0  0  0  0  0  0  0  0  0  0  0
   41.8546  -21.8892   33.1981 C   0  0  0  0  0  0  0  0  0  0  0  0
   40.7719  -21.8777   35.3042 C   0  0  0  0  0  0  0  0  0  0  0  0
   41.1636  -20.4670   35.7414 C   0  0  0  0  0  0  0  0  0  0  0  0
   33.6364  -22.6602   37.9098 O   0  0  0  0  0  0  0  0  0  0  0  0
   33.4110  -23.2583   39.2032 C   0  0  0  0  0  0  0  0  0  0  0  0
   33.3710  -22.1644   40.2229 C   0  0  0  0  0  0  0  0  0  0  0  0
   34.2313  -22.2717   41.4088 C   0  0  0  0  0  0  0  0  0  0  0  0
   35.5879  -22.6042   41.3208 N   0  0  0  0  0  0  0  0  0  0  0  0
   36.5885  -21.6133   41.2576 C   0  0  0  0  0  0  0  0  0  0  0  0
   36.3813  -20.8342   42.5483 C   0  0  0  0  0  0  0  0  0  0  0  0
   36.0001  -21.9877   43.4860 C   0  0  0  0  0  0  0  0  0  0  0  0
   35.9331  -23.2323   42.6262 C   0  0  0  0  0  0  0  0  0  0  0  0
 17 18  1  0  0  0
 18  1  1  0  0  0
  1  2  2  0  0  0
  2  3  1  0  0  0
  3  4  2  0  0  0
  4 19  1  0  0  0
 19 21  1  0  0  0
 21 22  1  0  0  0
 22 23  1  0  0  0
 23 24  1  0  0  0
 24 25  1  0  0  0
 24 26  1  0  0  0
 26 27  1  0  0  0
  4  5  1  0  0  0
  5  6  2  0  0  0
  6  7  1  0  0  0
  7  8  2  0  0  0
  8  9  1  0  0  0
  9 10  2  0  0  0
 10 28  1  0  0  0
 28 29  1  0  0  0
 29 30  1  0  0  0
 30 31  1  0  0  0
 31 32  1  0  0  0
 32 33  1  0  0  0
 33 34  1  0  0  0
 34 35  1  0  0  0
 35 36  1  0  0  0
  6 11  1  0  0  0
 11 12  2  0  0  0
 12 13  1  0  0  0
 13 14  2  0  0  0
 14 15  1  0  0  0
 15 16  2  0  0  0
 10  1  1  0  0  0
 36 32  1  0  0  0
 16 11  1  0  0  0
  8  3  1  0  0  0
 27 21  1  0  0  0
 19 20  1  0  0  0
M  END
> <minimizedAffinity>
-4.79880

> <CNNscore>
0.3256585598

> <CNNaffinity>
5.9347243309

> <CNN_VS>
1.9326937199

> <CNNaffinity_variance>
0.0971084088

$$$$
[H]c1c([H])c([H])c(-c2nc3c([H])c(OC([H])([H])C([H])([H])C([H])([H])N4C([H])([H])C([H])([H])C([H])([H])C4([H])[H])c(OC([H])([H])[H])c([H])c3c(N([H])C3([H])C([H])([H])C([H])([H])N(C([H])([H])[H])C([H])([H])C3([H])[H])c2[H])c([H])c1[H]


 36 40  0  0  0  0  0  0  0  0999 V2000
   36.1235  -13.8620   36.7463 C   0  0  0  0  0  0  0  0  0  0  0  0
   36.5567  -15.1489   36.5575 C   0  0  0  0  0  0  0  0  0  0  0  0
   35.7051  -16.1724   36.2195 C   0  0  0  0  0  0  0  0  0  0  0  0
   36.1739  -17.4413   36.0258 C   0  0  0  0  0  0  0  0  0  0  0  0
   35.2267  -18.4158   35.6666 C   0  0  0  0  0  0  0  0  0  0  0  0
   33.9000  -18.1104   35.5199 C   0  0  0  0  0  0  0  0  0  0  0  0
   33.5083  -16.8208   35.7323 N   0  0  0  0  0  0  0  0  0  0  0  0
   34.3513  -15.8565   36.0714 C   0  0  0  0  0  0  0  0  0  0  0  0
   33.9193  -14.5604   36.2642 C   0  0  0  0  0  0  0  0  0  0  0  0
   34.7681  -13.5337   36.6003 C   0  0  0  0  0  0  0  0  0  0  0  0
   32.8695  -19.0752   35.1425 C   0  0  0  0  0  0  0  0  0  0  0  0
   31.5549  -18.7638   35.3082 C   0  0  0  0  0  0  0  0  0  0  0  0
   30.5379  -19.6484   34.9674 C   0  0  0  0  0  0  0  0  0  0  0  0
   30.9087  -20.8715   34.4489 C   0  0  0  0  0  0  0  0  0  0  0  0
   32.2401  -21.1969   34.2765 C   0  0  0  0  0  0  0  0  0  0  0  0
   33.2232  -20.3163   34.6162 C   0  0  0  0  0  0  0  0  0  0  0  0
   38.3159  -13.1272   37.5891 C   0  0  0  0  0  0  0  0  0  0  0  0
   37.0230  -12.8709   37.0848 O   0  0  0  0  0  0  0  0  0  0  0  0
   37.5543  -17.8250   36.1442 N   0  0  0  0  0  0  0  0  0  0  0  0
   38.1571  -17.3157   36.8358 H   0  0  0  0  0  0  0  0  0  0  0  0
   38.1322  -18.8629   35.3499 C   0  0  0  0  0  0  0  0  0  0  0  0
   39.5150  -19.2061   35.8031 C   0  0  0  0  0  0  0  0  0  0  0  0
   40.0587  -20.3885   35.0188 C   0  0  0  0  0  0  0  0  0  0  0  0
   40.0146  -20.1447   33.6016 N   0  0  0  0  0  0  0  0  0  0  0  0
   41.2677  -19.6401   33.0852 C   0  0  0  0  0  0  0  0  0  0  0  0
   38.8661  -19.5108   33.0868 C   0  0  0  0  0  0  0  0  0  0  0  0
   38.2698  -18.4013   33.9154 C   0  0  0  0  0  0  0  0  0  0  0  0
   34.4408  -12.2482   36.8022 O   0  0  0  0  0  0  0  0  0  0  0  0
   33.7485  -11.6381   37.7974 C   0  0  0  0  0  0  0  0  0  0  0  0
   32.4518  -12.3158   38.1589 C   0  0  0  0  0  0  0  0  0  0  0  0
   31.3440  -11.9373   37.1999 C   0  0  0  0  0  0  0  0  0  0  0  0
   30.0306  -12.0201   37.7378 N   0  0  0  0  0  0  0  0  0  0  0  0
   29.9124  -12.3970   39.1038 C   0  0  0  0  0  0  0  0  0  0  0  0
   28.4553  -12.1624   39.4255 C   0  0  0  0  0  0  0  0  0  0  0  0
   28.0154  -11.1390   38.4308 C   0  0  0  0  0  0  0  0  0  0  0  0
   29.2528  -10.8254   37.5877 C   0  0  0  0  0  0  0  0  0  0  0  0
 17 18  1  0  0  0
 18  1  1  0  0  0
  1  2  2  0  0  0
  2  3  1  0  0  0
  3  4  2  0  0  0
  4 19  1  0  0  0
 19 21  1  0  0  0
 21 22  1  0  0  0
 22 23  1  0  0  0
 23 24  1  0  0  0
 24 25  1  0  0  0
 24 26  1  0  0  0
 26 27  1  0  0  0
  4  5  1  0  0  0
  5  6  2  0  0  0
  6  7  1  0  0  0
  7  8  2  0  0  0
  8  9  1  0  0  0
  9 10  2  0  0  0
 10 28  1  0  0  0
 28 29  1  0  0  0
 29 30  1  0  0  0
 30 31  1  0  0  0
 31 32  1  0  0  0
 32 33  1  0  0  0
 33 34  1  0  0  0
 34 35  1  0  0  0
 35 36  1  0  0  0
  6 11  1  0  0  0
 11 12  2  0  0  0
 12 13  1  0  0  0
 13 14  2  0  0  0
 14 15  1  0  0  0
 15 16  2  0  0  0
 10  1  1  0  0  0
 36 32  1  0  0  0
 16 11  1  0  0  0
  8  3  1  0  0  0
 27 21  1  0  0  0
 19 20  1  0  0  0
M  END
> <minimizedAffinity>
-8.69592

> <CNNscore>
0.8971065283

> <CNNaffinity>
7.2948961258

> <CNN_VS>
6.5442991257

> <CNNaffinity_variance>
0.0821845159

$$$$
[H]c1c([H])c([H])c(-c2nc3c([H])c(OC([H])([H])C([H])([H])C([H])([H])N4C([H])([H])C([H])([H])C([H])([H])C4([H])[H])c(OC([H])([H])[H])c([H])c3c(N([H])C3([H])C([H])([H])C([H])([H])N(C([H])([H])[H])C([H])([H])C3([H])[H])c2[H])c([H])c1[H]


 36 40  0  0  0  0  0  0  0  0999 V2000
   32.5201  -20.5255   34.2748 C   0  0  0  0  0  0  0  0  0  0  0  0
   33.8492  -20.2005   34.1875 C   0  0  0  0  0  0  0  0  0  0  0  0
   34.3486  -19.0056   34.6454 C   0  0  0  0  0  0  0  0  0  0  0  0
   35.6819  -18.7204   34.5544 C   0  0  0  0  0  0  0  0  0  0  0  0
   36.0977  -17.4789   35.0657 C   0  0  0  0  0  0  0  0  0  0  0  0
   35.2118  -16.5977   35.6253 C   0  0  0  0  0  0  0  0  0  0  0  0
   33.8956  -16.9534   35.6784 N   0  0  0  0  0  0  0  0  0  0  0  0
   33.4404  -18.1085   35.2154 C   0  0  0  0  0  0  0  0  0  0  0  0
   32.1035  -18.4387   35.2996 C   0  0  0  0  0  0  0  0  0  0  0  0
   31.6005  -19.6336   34.8446 C   0  0  0  0  0  0  0  0  0  0  0  0
   35.5821  -15.2972   36.1793 C   0  0  0  0  0  0  0  0  0  0  0  0
   34.7386  -14.2374   36.0455 C   0  0  0  0  0  0  0  0  0  0  0  0
   35.0468  -12.9799   36.5521 C   0  0  0  0  0  0  0  0  0  0  0  0
   36.2539  -12.8373   37.2040 C   0  0  0  0  0  0  0  0  0  0  0  0
   37.1167  -13.9068   37.3453 C   0  0  0  0  0  0  0  0  0  0  0  0
   36.7970  -15.1324   36.8421 C   0  0  0  0  0  0  0  0  0  0  0  0
   31.9294  -22.8919   34.6034 C   0  0  0  0  0  0  0  0  0  0  0  0
   32.0716  -21.7414   33.7988 O   0  0  0  0  0  0  0  0  0  0  0  0
   36.6668  -19.6073   33.9973 N   0  0  0  0  0  0  0  0  0  0  0  0
   36.3499  -20.3458   33.3227 H   0  0  0  0  0  0  0  0  0  0  0  0
   38.0525  -19.5241   34.3369 C   0  0  0  0  0  0  0  0  0  0  0  0
   38.9195  -19.4450   33.1215 C   0  0  0  0  0  0  0  0  0  0  0  0
   40.3735  -19.2400   33.5121 C   0  0  0  0  0  0  0  0  0  0  0  0
   40.8252  -20.2649   34.4151 N   0  0  0  0  0  0  0  0  0  0  0  0
   41.4978  -21.3489   33.7338 C   0  0  0  0  0  0  0  0  0  0  0  0
   39.9406  -20.6677   35.4355 C   0  0  0  0  0  0  0  0  0  0  0  0
   38.4818  -20.7761   35.0705 C   0  0  0  0  0  0  0  0  0  0  0  0
   30.3229  -20.0412   34.8884 O   0  0  0  0  0  0  0  0  0  0  0  0
   29.4323  -20.1134   35.9098 C   0  0  0  0  0  0  0  0  0  0  0  0
   28.8044  -21.4714   36.0925 C   0  0  0  0  0  0  0  0  0  0  0  0
   28.0831  -21.5731   37.4190 C   0  0  0  0  0  0  0  0  0  0  0  0
   28.8616  -22.0981   38.4864 N   0  0  0  0  0  0  0  0  0  0  0  0
   28.1573  -22.6547   39.5892 C   0  0  0  0  0  0  0  0  0  0  0  0
   29.2325  -23.3234   40.4129 C   0  0  0  0  0  0  0  0  0  0  0  0
   30.3284  -23.6021   39.4374 C   0  0  0  0  0  0  0  0  0  0  0  0
   29.8209  -23.0865   38.0894 C   0  0  0  0  0  0  0  0  0  0  0  0
 17 18  1  0  0  0
 18  1  1  0  0  0
  1  2  2  0  0  0
  2  3  1  0  0  0
  3  4  2  0  0  0
  4 19  1  0  0  0
 19 21  1  0  0  0
 21 22  1  0  0  0
 22 23  1  0  0  0
 23 24  1  0  0  0
 24 25  1  0  0  0
 24 26  1  0  0  0
 26 27  1  0  0  0
  4  5  1  0  0  0
  5  6  2  0  0  0
  6  7  1  0  0  0
  7  8  2  0  0  0
  8  9  1  0  0  0
  9 10  2  0  0  0
 10 28  1  0  0  0
 28 29  1  0  0  0
 29 30  1  0  0  0
 30 31  1  0  0  0
 31 32  1  0  0  0
 32 33  1  0  0  0
 33 34  1  0  0  0
 34 35  1  0  0  0
 35 36  1  0  0  0
  6 11  1  0  0  0
 11 12  2  0  0  0
 12 13  1  0  0  0
 13 14  2  0  0  0
 14 15  1  0  0  0
 15 16  2  0  0  0
 10  1  1  0  0  0
 36 32  1  0  0  0
 16 11  1  0  0  0
  8  3  1  0  0  0
 27 21  1  0  0  0
 19 20  1  0  0  0
M  END
> <minimizedAffinity>
-7.33855

> <CNNscore>
0.6927476525

> <CNNaffinity>
6.1813673973

> <CNN_VS>
4.2821278572

> <CNNaffinity_variance>
0.2883916497

$$$$
[H]c1c([H])c([H])c(-c2nc3c([H])c(OC([H])([H])C([H])([H])C([H])([H])N4C([H])([H])C([H])([H])C([H])([H])C4([H])[H])c(OC([H])([H])[H])c([H])c3c(N([H])C3([H])C([H])([H])C([H])([H])N(C([H])([H])[H])C([H])([H])C3([H])[H])c2[H])c([H])c1[H]


 36 40  0  0  0  0  0  0  0  0999 V2000
   36.3579  -22.2496   37.8098 C   0  0  0  0  0  0  0  0  0  0  0  0
   36.7879  -21.5122   36.7370 C   0  0  0  0  0  0  0  0  0  0  0  0
   36.6667  -20.1449   36.6849 C   0  0  0  0  0  0  0  0  0  0  0  0
   37.1189  -19.4404   35.6048 C   0  0  0  0  0  0  0  0  0  0  0  0
   36.9643  -18.0441   35.6528 C   0  0  0  0  0  0  0  0  0  0  0  0
   36.3879  -17.4202   36.7267 C   0  0  0  0  0  0  0  0  0  0  0  0
   35.9593  -18.1923   37.7669 N   0  0  0  0  0  0  0  0  0  0  0  0
   36.0769  -19.5120   37.7831 C   0  0  0  0  0  0  0  0  0  0  0  0
   35.6439  -20.2580   38.8598 C   0  0  0  0  0  0  0  0  0  0  0  0
   35.7651  -21.6254   38.9166 C   0  0  0  0  0  0  0  0  0  0  0  0
   36.2052  -15.9748   36.8393 C   0  0  0  0  0  0  0  0  0  0  0  0
   35.1255  -15.3802   36.2619 C   0  0  0  0  0  0  0  0  0  0  0  0
   34.9091  -14.0090   36.3382 C   0  0  0  0  0  0  0  0  0  0  0  0
   35.8381  -13.2578   37.0274 C   0  0  0  0  0  0  0  0  0  0  0  0
   36.9370  -13.8519   37.6172 C   0  0  0  0  0  0  0  0  0  0  0  0
   37.1322  -15.1980   37.5318 C   0  0  0  0  0  0  0  0  0  0  0  0
   35.6667  -24.4987   37.0882 C   0  0  0  0  0  0  0  0  0  0  0  0
   36.5046  -23.6224   37.8104 O   0  0  0  0  0  0  0  0  0  0  0  0
   37.7501  -20.0301   34.4556 N   0  0  0  0  0  0  0  0  0  0  0  0
   37.1422  -20.4699   33.7221 H   0  0  0  0  0  0  0  0  0  0  0  0
   39.1688  -20.0466   34.2846 C   0  0  0  0  0  0  0  0  0  0  0  0
   39.8881  -19.8881   35.5857 C   0  0  0  0  0  0  0  0  0  0  0  0
   41.3884  -20.0263   35.3896 C   0  0  0  0  0  0  0  0  0  0  0  0
   41.8773  -19.1014   34.4019 N   0  0  0  0  0  0  0  0  0  0  0  0
   42.3923  -17.8836   34.9876 C   0  0  0  0  0  0  0  0  0  0  0  0
   41.0965  -18.9150   33.2436 C   0  0  0  0  0  0  0  0  0  0  0  0
   39.6006  -18.8762   33.4281 C   0  0  0  0  0  0  0  0  0  0  0  0
   35.3791  -22.4296   39.9189 O   0  0  0  0  0  0  0  0  0  0  0  0
   36.0821  -23.0563   40.8961 C   0  0  0  0  0  0  0  0  0  0  0  0
   36.0662  -22.3471   42.2259 C   0  0  0  0  0  0  0  0  0  0  0  0
   34.6540  -22.1647   42.7384 C   0  0  0  0  0  0  0  0  0  0  0  0
   34.3352  -20.8456   43.1617 N   0  0  0  0  0  0  0  0  0  0  0  0
   35.2748  -19.8225   42.8574 C   0  0  0  0  0  0  0  0  0  0  0  0
   34.5536  -18.5433   43.2117 C   0  0  0  0  0  0  0  0  0  0  0  0
   33.1053  -18.8953   43.1184 C   0  0  0  0  0  0  0  0  0  0  0  0
   33.0650  -20.3666   42.7012 C   0  0  0  0  0  0  0  0  0  0  0  0
 17 18  1  0  0  0
 18  1  1  0  0  0
  1  2  2  0  0  0
  2  3  1  0  0  0
  3  4  2  0  0  0
  4 19  1  0  0  0
 19 21  1  0  0  0
 21 22  1  0  0  0
 22 23  1  0  0  0
 23 24  1  0  0  0
 24 25  1  0  0  0
 24 26  1  0  0  0
 26 27  1  0  0  0
  4  5  1  0  0  0
  5  6  2  0  0  0
  6  7  1  0  0  0
  7  8  2  0  0  0
  8  9  1  0  0  0
  9 10  2  0  0  0
 10 28  1  0  0  0
 28 29  1  0  0  0
 29 30  1  0  0  0
 30 31  1  0  0  0
 31 32  1  0  0  0
 32 33  1  0  0  0
 33 34  1  0  0  0
 34 35  1  0  0  0
 35 36  1  0  0  0
  6 11  1  0  0  0
 11 12  2  0  0  0
 12 13  1  0  0  0
 13 14  2  0  0  0
 14 15  1  0  0  0
 15 16  2  0  0  0
 10  1  1  0  0  0
 36 32  1  0  0  0
 16 11  1  0  0  0
  8  3  1  0  0  0
 27 21  1  0  0  0
 19 20  1  0  0  0
M  END
> <minimizedAffinity>
-6.50330

> <CNNscore>
0.3744824231

> <CNNaffinity>
5.7663207054

> <CNN_VS>
2.1593856812

> <CNNaffinity_variance>
0.2724045813

$$$$
[H]c1c([H])c([H])c(-c2nc3c([H])c(OC([H])([H])C([H])([H])C([H])([H])N4C([H])([H])C([H])([H])C([H])([H])C4([H])[H])c(OC([H])([H])[H])c([H])c3c(N([H])C3([H])C([H])([H])C([H])([H])N(C([H])([H])[H])C([H])([H])C3([H])[H])c2[H])c([H])c1[H]


 36 40  0  0  0  0  0  0  0  0999 V2000
   35.7705  -22.1895   37.4354 C   0  0  0  0  0  0  0  0  0  0  0  0
   36.8476  -21.4196   37.0795 C   0  0  0  0  0  0  0  0  0  0  0  0
   36.7824  -20.0497   37.0016 C   0  0  0  0  0  0  0  0  0  0  0  0
   37.8801  -19.3126   36.6565 C   0  0  0  0  0  0  0  0  0  0  0  0
   37.7169  -17.9170   36.6204 C   0  0  0  0  0  0  0  0  0  0  0  0
   36.5179  -17.3246   36.9141 C   0  0  0  0  0  0  0  0  0  0  0  0
   35.4669  -18.1281   37.2483 N   0  0  0  0  0  0  0  0  0  0  0  0
   35.5561  -19.4490   37.3016 C   0  0  0  0  0  0  0  0  0  0  0  0
   34.4742  -20.2276   37.6575 C   0  0  0  0  0  0  0  0  0  0  0  0
   34.5360  -21.5978   37.7385 C   0  0  0  0  0  0  0  0  0  0  0  0
   36.2867  -15.8818   36.9009 C   0  0  0  0  0  0  0  0  0  0  0  0
   35.1886  -15.3762   36.2756 C   0  0  0  0  0  0  0  0  0  0  0  0
   34.9262  -14.0115   36.2328 C   0  0  0  0  0  0  0  0  0  0  0  0
   35.8286  -13.1726   36.8528 C   0  0  0  0  0  0  0  0  0  0  0  0
   36.9458  -13.6760   37.4904 C   0  0  0  0  0  0  0  0  0  0  0  0
   37.1861  -15.0171   37.5220 C   0  0  0  0  0  0  0  0  0  0  0  0
   36.7897  -24.3065   36.7031 C   0  0  0  0  0  0  0  0  0  0  0  0
   35.8916  -23.5634   37.4984 O   0  0  0  0  0  0  0  0  0  0  0  0
   39.1712  -19.8690   36.3557 N   0  0  0  0  0  0  0  0  0  0  0  0
   39.2709  -20.9131   36.3257 H   0  0  0  0  0  0  0  0  0  0  0  0
   40.3182  -19.0534   36.1079 C   0  0  0  0  0  0  0  0  0  0  0  0
   41.0477  -19.4793   34.8742 C   0  0  0  0  0  0  0  0  0  0  0  0
   42.1912  -18.5257   34.5711 C   0  0  0  0  0  0  0  0  0  0  0  0
   43.0830  -18.4003   35.6930 N   0  0  0  0  0  0  0  0  0  0  0  0
   44.2235  -19.2846   35.5981 C   0  0  0  0  0  0  0  0  0  0  0  0
   42.5057  -18.3174   36.9759 C   0  0  0  0  0  0  0  0  0  0  0  0
   41.3086  -19.1942   37.2433 C   0  0  0  0  0  0  0  0  0  0  0  0
   33.5421  -22.4325   38.0787 O   0  0  0  0  0  0  0  0  0  0  0  0
   32.2023  -22.3743   37.8701 C   0  0  0  0  0  0  0  0  0  0  0  0
   31.7903  -22.5271   36.4284 C   0  0  0  0  0  0  0  0  0  0  0  0
   31.2297  -21.2356   35.8737 C   0  0  0  0  0  0  0  0  0  0  0  0
   32.2045  -20.2900   35.4534 N   0  0  0  0  0  0  0  0  0  0  0  0
   32.9280  -20.5894   34.2664 C   0  0  0  0  0  0  0  0  0  0  0  0
   33.6858  -19.3175   33.9666 C   0  0  0  0  0  0  0  0  0  0  0  0
   32.8925  -18.2454   34.6386 C   0  0  0  0  0  0  0  0  0  0  0  0
   31.7035  -18.9574   35.2865 C   0  0  0  0  0  0  0  0  0  0  0  0
 17 18  1  0  0  0
 18  1  1  0  0  0
  1  2  2  0  0  0
  2  3  1  0  0  0
  3  4  2  0  0  0
  4 19  1  0  0  0
 19 21  1  0  0  0
 21 22  1  0  0  0
 22 23  1  0  0  0
 23 24  1  0  0  0
 24 25  1  0  0  0
 24 26  1  0  0  0
 26 27  1  0  0  0
  4  5  1  0  0  0
  5  6  2  0  0  0
  6  7  1  0  0  0
  7  8  2  0  0  0
  8  9  1  0  0  0
  9 10  2  0  0  0
 10 28  1  0  0  0
 28 29  1  0  0  0
 29 30  1  0  0  0
 30 31  1  0  0  0
 31 32  1  0  0  0
 32 33  1  0  0  0
 33 34  1  0  0  0
 34 35  1  0  0  0
 35 36  1  0  0  0
  6 11  1  0  0  0
 11 12  2  0  0  0
 12 13  1  0  0  0
 13 14  2  0  0  0
 14 15  1  0  0  0
 15 16  2  0  0  0
 10  1  1  0  0  0
 36 32  1  0  0  0
 16 11  1  0  0  0
  8  3  1  0  0  0
 27 21  1  0  0  0
 19 20  1  0  0  0
M  END
> <minimizedAffinity>
-6.73296

> <CNNscore>
0.3398021460

> <CNNaffinity>
5.9926633835

> <CNN_VS>
2.0363199711

> <CNNaffinity_variance>
0.4206872880

$$$$
[H]c1c([H])c([H])c(-c2nc3c([H])c(OC([H])([H])C([H])([H])C([H])([H])N4C([H])([H])C([H])([H])C([H])([H])C4([H])[H])c(OC([H])([H])[H])c([H])c3c(N([H])C3([H])C([H])([H])C([H])([H])N(C([H])([H])[H])C([H])([H])C3([H])[H])c2[H])c([H])c1[H]


 36 40  0  0  0  0  0  0  0  0999 V2000
   35.8009  -22.0713   37.1627 C   0  0  0  0  0  0  0  0  0  0  0  0
   36.8194  -21.1609   37.0468 C   0  0  0  0  0  0  0  0  0  0  0  0
   36.5931  -19.8113   36.9263 C   0  0  0  0  0  0  0  0  0  0  0  0
   37.6333  -18.9308   36.8262 C   0  0  0  0  0  0  0  0  0  0  0  0
   37.2995  -17.5693   36.7233 C   0  0  0  0  0  0  0  0  0  0  0  0
   35.9976  -17.1455   36.7212 C   0  0  0  0  0  0  0  0  0  0  0  0
   35.0138  -18.0854   36.8228 N   0  0  0  0  0  0  0  0  0  0  0  0
   35.2623  -19.3830   36.9238 C   0  0  0  0  0  0  0  0  0  0  0  0
   34.2403  -20.3027   37.0388 C   0  0  0  0  0  0  0  0  0  0  0  0
   34.4626  -21.6529   37.1616 C   0  0  0  0  0  0  0  0  0  0  0  0
   35.5868  -15.7465   36.6240 C   0  0  0  0  0  0  0  0  0  0  0  0
   34.3218  -15.4366   36.2284 C   0  0  0  0  0  0  0  0  0  0  0  0
   33.8843  -14.1216   36.1173 C   0  0  0  0  0  0  0  0  0  0  0  0
   34.7869  -13.1249   36.4244 C   0  0  0  0  0  0  0  0  0  0  0  0
   36.0728  -13.4292   36.8272 C   0  0  0  0  0  0  0  0  0  0  0  0
   36.4835  -14.7246   36.9303 C   0  0  0  0  0  0  0  0  0  0  0  0
   37.2176  -24.0311   36.7060 C   0  0  0  0  0  0  0  0  0  0  0  0
   36.0850  -23.4171   37.2816 O   0  0  0  0  0  0  0  0  0  0  0  0
   39.0209  -19.3065   36.8418 N   0  0  0  0  0  0  0  0  0  0  0  0
   39.4472  -19.6072   37.7523 H   0  0  0  0  0  0  0  0  0  0  0  0
   39.8367  -19.2749   35.6689 C   0  0  0  0  0  0  0  0  0  0  0  0
   39.1912  -19.9857   34.5228 C   0  0  0  0  0  0  0  0  0  0  0  0
   40.0242  -19.8361   33.2610 C   0  0  0  0  0  0  0  0  0  0  0  0
   41.3751  -20.2865   33.4660 N   0  0  0  0  0  0  0  0  0  0  0  0
   41.5740  -21.6563   33.0469 C   0  0  0  0  0  0  0  0  0  0  0  0
   41.9955  -19.9462   34.6847 C   0  0  0  0  0  0  0  0  0  0  0  0
   41.1396  -20.0007   35.9247 C   0  0  0  0  0  0  0  0  0  0  0  0
   33.5366  -22.6163   37.2828 O   0  0  0  0  0  0  0  0  0  0  0  0
   32.3667  -22.8320   36.6296 C   0  0  0  0  0  0  0  0  0  0  0  0
   31.1376  -22.4444   37.4110 C   0  0  0  0  0  0  0  0  0  0  0  0
   30.3041  -23.6561   37.7674 C   0  0  0  0  0  0  0  0  0  0  0  0
   30.1127  -23.8637   39.1608 N   0  0  0  0  0  0  0  0  0  0  0  0
   31.1988  -23.5393   40.0194 C   0  0  0  0  0  0  0  0  0  0  0  0
   30.6122  -23.6377   41.4080 C   0  0  0  0  0  0  0  0  0  0  0  0
   29.1477  -23.4241   41.2085 C   0  0  0  0  0  0  0  0  0  0  0  0
   28.9648  -23.2007   39.7062 C   0  0  0  0  0  0  0  0  0  0  0  0
 17 18  1  0  0  0
 18  1  1  0  0  0
  1  2  2  0  0  0
  2  3  1  0  0  0
  3  4  2  0  0  0
  4 19  1  0  0  0
 19 21  1  0  0  0
 21 22  1  0  0  0
 22 23  1  0  0  0
 23 24  1  0  0  0
 24 25  1  0  0  0
 24 26  1  0  0  0
 26 27  1  0  0  0
  4  5  1  0  0  0
  5  6  2  0  0  0
  6  7  1  0  0  0
  7  8  2  0  0  0
  8  9  1  0  0  0
  9 10  2  0  0  0
 10 28  1  0  0  0
 28 29  1  0  0  0
 29 30  1  0  0  0
 30 31  1  0  0  0
 31 32  1  0  0  0
 32 33  1  0  0  0
 33 34  1  0  0  0
 34 35  1  0  0  0
 35 36  1  0  0  0
  6 11  1  0  0  0
 11 12  2  0  0  0
 12 13  1  0  0  0
 13 14  2  0  0  0
 14 15  1  0  0  0
 15 16  2  0  0  0
 10  1  1  0  0  0
 36 32  1  0  0  0
 16 11  1  0  0  0
  8  3  1  0  0  0
 27 21  1  0  0  0
 19 20  1  0  0  0
M  END
> <minimizedAffinity>
-5.57972

> <CNNscore>
0.3352160752

> <CNNaffinity>
5.6390280724

> <CNN_VS>
1.8902928829

> <CNNaffinity_variance>
0.1041513458

$$$$
[H]c1c([H])c([H])c(-c2nc3c([H])c(OC([H])([H])C([H])([H])C([H])([H])N4C([H])([H])C([H])([H])C([H])([H])C4([H])[H])c(OC([H])([H])[H])c([H])c3c(N([H])C3([H])C([H])([H])C([H])([H])N(C([H])([H])[H])C([H])([H])C3([H])[H])c2[H])c([H])c1[H]


 36 40  0  0  0  0  0  0  0  0999 V2000
   36.8666  -21.9645   37.6304 C   0  0  0  0  0  0  0  0  0  0  0  0
   37.0389  -21.2290   36.4864 C   0  0  0  0  0  0  0  0  0  0  0  0
   36.7644  -19.8844   36.4248 C   0  0  0  0  0  0  0  0  0  0  0  0
   36.9609  -19.1795   35.2707 C   0  0  0  0  0  0  0  0  0  0  0  0
   36.6664  -17.8057   35.3128 C   0  0  0  0  0  0  0  0  0  0  0  0
   36.2039  -17.2033   36.4520 C   0  0  0  0  0  0  0  0  0  0  0  0
   36.0315  -17.9744   37.5643 N   0  0  0  0  0  0  0  0  0  0  0  0
   36.2917  -19.2734   37.5900 C   0  0  0  0  0  0  0  0  0  0  0  0
   36.1179  -20.0177   38.7386 C   0  0  0  0  0  0  0  0  0  0  0  0
   36.3932  -21.3621   38.8048 C   0  0  0  0  0  0  0  0  0  0  0  0
   35.8868  -15.7810   36.5612 C   0  0  0  0  0  0  0  0  0  0  0  0
   34.6596  -15.3284   36.1844 C   0  0  0  0  0  0  0  0  0  0  0  0
   34.3110  -13.9850   36.2663 C   0  0  0  0  0  0  0  0  0  0  0  0
   35.2631  -13.1111   36.7479 C   0  0  0  0  0  0  0  0  0  0  0  0
   36.5112  -13.5606   37.1332 C   0  0  0  0  0  0  0  0  0  0  0  0
   36.8347  -14.8816   37.0458 C   0  0  0  0  0  0  0  0  0  0  0  0
   37.6032  -24.0233   36.5011 C   0  0  0  0  0  0  0  0  0  0  0  0
   37.1585  -23.3139   37.6370 O   0  0  0  0  0  0  0  0  0  0  0  0
   37.4616  -19.7454   34.0476 N   0  0  0  0  0  0  0  0  0  0  0  0
   36.7805  -20.2002   33.3916 H   0  0  0  0  0  0  0  0  0  0  0  0
   38.8480  -19.7186   33.7019 C   0  0  0  0  0  0  0  0  0  0  0  0
   39.4991  -21.0483   33.9098 C   0  0  0  0  0  0  0  0  0  0  0  0
   40.9390  -21.0222   33.4253 C   0  0  0  0  0  0  0  0  0  0  0  0
   41.6865  -19.9660   34.0542 N   0  0  0  0  0  0  0  0  0  0  0  0
   42.4244  -20.4206   35.2121 C   0  0  0  0  0  0  0  0  0  0  0  0
   41.0442  -18.7220   34.2148 C   0  0  0  0  0  0  0  0  0  0  0  0
   39.5870  -18.7512   34.6007 C   0  0  0  0  0  0  0  0  0  0  0  0
   36.2600  -22.1623   39.8736 O   0  0  0  0  0  0  0  0  0  0  0  0
   35.1652  -22.7006   40.4680 C   0  0  0  0  0  0  0  0  0  0  0  0
   34.7756  -22.0420   41.7665 C   0  0  0  0  0  0  0  0  0  0  0  0
   33.3407  -21.5623   41.7345 C   0  0  0  0  0  0  0  0  0  0  0  0
   32.3942  -22.4639   42.2933 N   0  0  0  0  0  0  0  0  0  0  0  0
   31.7328  -23.3472   41.3963 C   0  0  0  0  0  0  0  0  0  0  0  0
   30.9983  -24.3084   42.3011 C   0  0  0  0  0  0  0  0  0  0  0  0
   31.7603  -24.2663   43.5847 C   0  0  0  0  0  0  0  0  0  0  0  0
   32.9099  -23.2847   43.3493 C   0  0  0  0  0  0  0  0  0  0  0  0
 17 18  1  0  0  0
 18  1  1  0  0  0
  1  2  2  0  0  0
  2  3  1  0  0  0
  3  4  2  0  0  0
  4 19  1  0  0  0
 19 21  1  0  0  0
 21 22  1  0  0  0
 22 23  1  0  0  0
 23 24  1  0  0  0
 24 25  1  0  0  0
 24 26  1  0  0  0
 26 27  1  0  0  0
  4  5  1  0  0  0
  5  6  2  0  0  0
  6  7  1  0  0  0
  7  8  2  0  0  0
  8  9  1  0  0  0
  9 10  2  0  0  0
 10 28  1  0  0  0
 28 29  1  0  0  0
 29 30  1  0  0  0
 30 31  1  0  0  0
 31 32  1  0  0  0
 32 33  1  0  0  0
 33 34  1  0  0  0
 34 35  1  0  0  0
 35 36  1  0  0  0
  6 11  1  0  0  0
 11 12  2  0  0  0
 12 13  1  0  0  0
 13 14  2  0  0  0
 14 15  1  0  0  0
 15 16  2  0  0  0
 10  1  1  0  0  0
 36 32  1  0  0  0
 16 11  1  0  0  0
  8  3  1  0  0  0
 27 21  1  0  0  0
 19 20  1  0  0  0
M  END
> <minimizedAffinity>
-5.61174

> <CNNscore>
0.3328863382

> <CNNaffinity>
5.5565757751

> <CNN_VS>
1.8497081995

> <CNNaffinity_variance>
0.1858149469

$$$$
[H]c1c([H])c([H])c(-c2nc3c([H])c(OC([H])([H])C([H])([H])C([H])([H])N4C([H])([H])C([H])([H])C([H])([H])C4([H])[H])c(OC([H])([H])[H])c([H])c3c(N([H])C3([H])C([H])([H])C([H])([H])N(C([H])([H])[H])C([H])([H])C3([H])[H])c2[H])c([H])c1[H]


 36 40  0  0  0  0  0  0  0  0999 V2000
   35.5486  -22.1587   37.3236 C   0  0  0  0  0  0  0  0  0  0  0  0
   36.6371  -21.4196   36.9382 C   0  0  0  0  0  0  0  0  0  0  0  0
   36.6162  -20.0471   36.8853 C   0  0  0  0  0  0  0  0  0  0  0  0
   37.7245  -19.3417   36.5093 C   0  0  0  0  0  0  0  0  0  0  0  0
   37.6083  -17.9409   36.5024 C   0  0  0  0  0  0  0  0  0  0  0  0
   36.4428  -17.3135   36.8527 C   0  0  0  0  0  0  0  0  0  0  0  0
   35.3784  -18.0867   37.2149 N   0  0  0  0  0  0  0  0  0  0  0  0
   35.4240  -19.4106   37.2431 C   0  0  0  0  0  0  0  0  0  0  0  0
   34.3304  -20.1583   37.6285 C   0  0  0  0  0  0  0  0  0  0  0  0
   34.3480  -21.5310   37.6847 C   0  0  0  0  0  0  0  0  0  0  0  0
   36.2612  -15.8637   36.8721 C   0  0  0  0  0  0  0  0  0  0  0  0
   37.1528  -15.0769   37.5344 C   0  0  0  0  0  0  0  0  0  0  0  0
   37.0220  -13.6937   37.5846 C   0  0  0  0  0  0  0  0  0  0  0  0
   35.9426  -13.1348   36.9328 C   0  0  0  0  0  0  0  0  0  0  0  0
   35.0324  -13.9247   36.2576 C   0  0  0  0  0  0  0  0  0  0  0  0
   35.1774  -15.2792   36.2193 C   0  0  0  0  0  0  0  0  0  0  0  0
   36.8289  -24.2577   37.2138 C   0  0  0  0  0  0  0  0  0  0  0  0
   35.6245  -23.5368   37.3594 O   0  0  0  0  0  0  0  0  0  0  0  0
   38.9830  -19.9360   36.1489 N   0  0  0  0  0  0  0  0  0  0  0  0
   39.0533  -20.9827   36.1266 H   0  0  0  0  0  0  0  0  0  0  0  0
   40.1367  -19.1546   35.8319 C   0  0  0  0  0  0  0  0  0  0  0  0
   40.9161  -19.7463   34.7015 C   0  0  0  0  0  0  0  0  0  0  0  0
   42.0681  -18.8363   34.3098 C   0  0  0  0  0  0  0  0  0  0  0  0
   42.9140  -18.5440   35.4362 N   0  0  0  0  0  0  0  0  0  0  0  0
   44.0598  -19.4231   35.5137 C   0  0  0  0  0  0  0  0  0  0  0  0
   42.2856  -18.2834   36.6704 C   0  0  0  0  0  0  0  0  0  0  0  0
   41.0813  -19.1231   37.0136 C   0  0  0  0  0  0  0  0  0  0  0  0
   33.3398  -22.3374   38.0502 O   0  0  0  0  0  0  0  0  0  0  0  0
   32.0403  -22.3913   37.6626 C   0  0  0  0  0  0  0  0  0  0  0  0
   31.8385  -22.4529   36.1703 C   0  0  0  0  0  0  0  0  0  0  0  0
   30.9854  -21.3033   35.6798 C   0  0  0  0  0  0  0  0  0  0  0  0
   31.6731  -20.3386   34.8939 N   0  0  0  0  0  0  0  0  0  0  0  0
   31.9096  -19.0684   35.4879 C   0  0  0  0  0  0  0  0  0  0  0  0
   32.8426  -18.3780   34.5211 C   0  0  0  0  0  0  0  0  0  0  0  0
   33.5146  -19.4946   33.7919 C   0  0  0  0  0  0  0  0  0  0  0  0
   32.9390  -20.7809   34.3874 C   0  0  0  0  0  0  0  0  0  0  0  0
 17 18  1  0  0  0
 18  1  1  0  0  0
  1  2  2  0  0  0
  2  3  1  0  0  0
  3  4  2  0  0  0
  4 19  1  0  0  0
 19 21  1  0  0  0
 21 22  1  0  0  0
 22 23  1  0  0  0
 23 24  1  0  0  0
 24 25  1  0  0  0
 24 26  1  0  0  0
 26 27  1  0  0  0
  4  5  1  0  0  0
  5  6  2  0  0  0
  6  7  1  0  0  0
  7  8  2  0  0  0
  8  9  1  0  0  0
  9 10  2  0  0  0
 10 28  1  0  0  0
 28 29  1  0  0  0
 29 30  1  0  0  0
 30 31  1  0  0  0
 31 32  1  0  0  0
 32 33  1  0  0  0
 33 34  1  0  0  0
 34 35  1  0  0  0
 35 36  1  0  0  0
  6 11  1  0  0  0
 11 12  2  0  0  0
 12 13  1  0  0  0
 13 14  2  0  0  0
 14 15  1  0  0  0
 15 16  2  0  0  0
 10  1  1  0  0  0
 36 32  1  0  0  0
 16 11  1  0  0  0
  8  3  1  0  0  0
 27 21  1  0  0  0
 19 20  1  0  0  0
M  END
> <minimizedAffinity>
-6.68592

> <CNNscore>
0.3276465237

> <CNNaffinity>
5.9627289772

> <CNN_VS>
1.9536674023

> <CNNaffinity_variance>
0.4422885776

$$$$
[H]c1c([H])c([H])c(-c2nc3c([H])c(OC([H])([H])C([H])([H])C([H])([H])N4C([H])([H])C([H])([H])C([H])([H])C4([H])[H])c(OC([H])([H])[H])c([H])c3c(N([H])C3([H])C([H])([H])C([H])([H])N(C([H])([H])[H])C([H])([H])C3([H])[H])c2[H])c([H])c1[H]


 36 40  0  0  0  0  0  0  0  0999 V2000
   34.4580  -18.4527   36.2096 C   0  0  0  0  0  0  0  0  0  0  0  0
   33.6034  -19.5131   36.3672 C   0  0  0  0  0  0  0  0  0  0  0  0
   33.7417  -20.4281   37.3824 C   0  0  0  0  0  0  0  0  0  0  0  0
   32.8627  -21.4658   37.5174 C   0  0  0  0  0  0  0  0  0  0  0  0
   33.0790  -22.3391   38.5973 C   0  0  0  0  0  0  0  0  0  0  0  0
   34.1190  -22.1612   39.4699 C   0  0  0  0  0  0  0  0  0  0  0  0
   34.9556  -21.1024   39.2681 N   0  0  0  0  0  0  0  0  0  0  0  0
   34.8053  -20.2432   38.2706 C   0  0  0  0  0  0  0  0  0  0  0  0
   35.6641  -19.1758   38.1072 C   0  0  0  0  0  0  0  0  0  0  0  0
   35.5280  -18.2574   37.0945 C   0  0  0  0  0  0  0  0  0  0  0  0
   34.3925  -23.0288   40.6135 C   0  0  0  0  0  0  0  0  0  0  0  0
   34.0099  -24.3346   40.5815 C   0  0  0  0  0  0  0  0  0  0  0  0
   34.2444  -25.1989   41.6450 C   0  0  0  0  0  0  0  0  0  0  0  0
   34.8861  -24.6832   42.7516 C   0  0  0  0  0  0  0  0  0  0  0  0
   35.2786  -23.3594   42.7936 C   0  0  0  0  0  0  0  0  0  0  0  0
   35.0402  -22.5272   41.7410 C   0  0  0  0  0  0  0  0  0  0  0  0
   33.2862  -17.7176   34.1741 C   0  0  0  0  0  0  0  0  0  0  0  0
   34.2726  -17.5620   35.1712 O   0  0  0  0  0  0  0  0  0  0  0  0
   31.7403  -21.6986   36.6497 N   0  0  0  0  0  0  0  0  0  0  0  0
   31.2826  -20.8728   36.1920 H   0  0  0  0  0  0  0  0  0  0  0  0
   31.2239  -23.0074   36.3992 C   0  0  0  0  0  0  0  0  0  0  0  0
   32.1803  -23.8409   35.6080 C   0  0  0  0  0  0  0  0  0  0  0  0
   31.6578  -25.2597   35.4573 C   0  0  0  0  0  0  0  0  0  0  0  0
   30.3411  -25.2766   34.8779 N   0  0  0  0  0  0  0  0  0  0  0  0
   30.3664  -25.4789   33.4461 C   0  0  0  0  0  0  0  0  0  0  0  0
   29.4241  -24.3021   35.3202 C   0  0  0  0  0  0  0  0  0  0  0  0
   29.9657  -22.9162   35.5635 C   0  0  0  0  0  0  0  0  0  0  0  0
   36.3079  -17.1908   36.8610 O   0  0  0  0  0  0  0  0  0  0  0  0
   36.6926  -16.1615   37.6574 C   0  0  0  0  0  0  0  0  0  0  0  0
   36.9878  -14.8810   36.9194 C   0  0  0  0  0  0  0  0  0  0  0  0
   36.0022  -14.6515   35.7943 C   0  0  0  0  0  0  0  0  0  0  0  0
   34.9590  -13.7317   36.0889 N   0  0  0  0  0  0  0  0  0  0  0  0
   33.7119  -14.2766   36.5009 C   0  0  0  0  0  0  0  0  0  0  0  0
   32.9185  -13.0753   36.9583 C   0  0  0  0  0  0  0  0  0  0  0  0
   33.9541  -12.0634   37.3237 C   0  0  0  0  0  0  0  0  0  0  0  0
   35.3013  -12.7415   37.0673 C   0  0  0  0  0  0  0  0  0  0  0  0
 17 18  1  0  0  0
 18  1  1  0  0  0
  1  2  2  0  0  0
  2  3  1  0  0  0
  3  4  2  0  0  0
  4 19  1  0  0  0
 19 21  1  0  0  0
 21 22  1  0  0  0
 22 23  1  0  0  0
 23 24  1  0  0  0
 24 25  1  0  0  0
 24 26  1  0  0  0
 26 27  1  0  0  0
  4  5  1  0  0  0
  5  6  2  0  0  0
  6  7  1  0  0  0
  7  8  2  0  0  0
  8  9  1  0  0  0
  9 10  2  0  0  0
 10 28  1  0  0  0
 28 29  1  0  0  0
 29 30  1  0  0  0
 30 31  1  0  0  0
 31 32  1  0  0  0
 32 33  1  0  0  0
 33 34  1  0  0  0
 34 35  1  0  0  0
 35 36  1  0  0  0
  6 11  1  0  0  0
 11 12  2  0  0  0
 12 13  1  0  0  0
 13 14  2  0  0  0
 14 15  1  0  0  0
 15 16  2  0  0  0
 10  1  1  0  0  0
 36 32  1  0  0  0
 16 11  1  0  0  0
  8  3  1  0  0  0
 27 21  1  0  0  0
 19 20  1  0  0  0
M  END
> <minimizedAffinity>
-5.64618

> <CNNscore>
0.3086685240

> <CNNaffinity>
5.5327358246

> <CNN_VS>
1.7077814341

> <CNNaffinity_variance>
0.2458316386

$$$$
[H]c1c([H])c([H])c(-c2nc3c([H])c(OC([H])([H])C([H])([H])C([H])([H])N4C([H])([H])C([H])([H])C([H])([H])C4([H])[H])c(OC([H])([H])[H])c([H])c3c(N([H])C3([H])C([H])([H])C([H])([H])N(C([H])([H])[H])C([H])([H])C3([H])[H])c2[H])c([H])c1[H]


 36 40  0  0  0  0  0  0  0  0999 V2000
   36.2195  -22.1256   37.9582 C   0  0  0  0  0  0  0  0  0  0  0  0
   36.6691  -21.4409   36.8588 C   0  0  0  0  0  0  0  0  0  0  0  0
   36.5944  -20.0729   36.7596 C   0  0  0  0  0  0  0  0  0  0  0  0
   37.0650  -19.4220   35.6540 C   0  0  0  0  0  0  0  0  0  0  0  0
   36.9583  -18.0204   35.6541 C   0  0  0  0  0  0  0  0  0  0  0  0
   36.4087  -17.3404   36.7077 C   0  0  0  0  0  0  0  0  0  0  0  0
   35.9591  -18.0609   37.7757 N   0  0  0  0  0  0  0  0  0  0  0  0
   36.0318  -19.3825   37.8373 C   0  0  0  0  0  0  0  0  0  0  0  0
   35.5789  -20.0756   38.9409 C   0  0  0  0  0  0  0  0  0  0  0  0
   35.6537  -21.4435   39.0448 C   0  0  0  0  0  0  0  0  0  0  0  0
   36.2759  -15.8865   36.7707 C   0  0  0  0  0  0  0  0  0  0  0  0
   37.1703  -15.1538   37.4888 C   0  0  0  0  0  0  0  0  0  0  0  0
   37.0849  -13.7693   37.5819 C   0  0  0  0  0  0  0  0  0  0  0  0
   36.0482  -13.1516   36.9140 C   0  0  0  0  0  0  0  0  0  0  0  0
   35.1355  -13.8864   36.1822 C   0  0  0  0  0  0  0  0  0  0  0  0
   35.2358  -15.2432   36.1024 C   0  0  0  0  0  0  0  0  0  0  0  0
   35.9273  -24.3514   36.9496 C   0  0  0  0  0  0  0  0  0  0  0  0
   36.3194  -23.5018   38.0059 O   0  0  0  0  0  0  0  0  0  0  0  0
   37.6702  -20.0725   34.5238 N   0  0  0  0  0  0  0  0  0  0  0  0
   37.0437  -20.4904   33.7931 H   0  0  0  0  0  0  0  0  0  0  0  0
   39.0868  -20.1773   34.3678 C   0  0  0  0  0  0  0  0  0  0  0  0
   39.8149  -19.7711   35.6089 C   0  0  0  0  0  0  0  0  0  0  0  0
   41.3085  -20.0032   35.4550 C   0  0  0  0  0  0  0  0  0  0  0  0
   41.8288  -19.3292   34.2952 N   0  0  0  0  0  0  0  0  0  0  0  0
   42.3902  -18.0341   34.6102 C   0  0  0  0  0  0  0  0  0  0  0  0
   41.0525  -19.3658   33.1197 C   0  0  0  0  0  0  0  0  0  0  0  0
   39.5595  -19.2334   33.2835 C   0  0  0  0  0  0  0  0  0  0  0  0
   35.2454  -22.1989   40.0759 O   0  0  0  0  0  0  0  0  0  0  0  0
   34.6576  -21.8753   41.2556 C   0  0  0  0  0  0  0  0  0  0  0  0
   35.5988  -21.2982   42.2815 C   0  0  0  0  0  0  0  0  0  0  0  0
   36.9173  -22.0407   42.3020 C   0  0  0  0  0  0  0  0  0  0  0  0
   38.0476  -21.2668   41.9217 N   0  0  0  0  0  0  0  0  0  0  0  0
   38.9887  -20.9508   42.9398 C   0  0  0  0  0  0  0  0  0  0  0  0
   40.1545  -20.3507   42.1898 C   0  0  0  0  0  0  0  0  0  0  0  0
   40.0364  -20.9102   40.8102 C   0  0  0  0  0  0  0  0  0  0  0  0
   38.8064  -21.8196   40.8384 C   0  0  0  0  0  0  0  0  0  0  0  0
 17 18  1  0  0  0
 18  1  1  0  0  0
  1  2  2  0  0  0
  2  3  1  0  0  0
  3  4  2  0  0  0
  4 19  1  0  0  0
 19 21  1  0  0  0
 21 22  1  0  0  0
 22 23  1  0  0  0
 23 24  1  0  0  0
 24 25  1  0  0  0
 24 26  1  0  0  0
 26 27  1  0  0  0
  4  5  1  0  0  0
  5  6  2  0  0  0
  6  7  1  0  0  0
  7  8  2  0  0  0
  8  9  1  0  0  0
  9 10  2  0  0  0
 10 28  1  0  0  0
 28 29  1  0  0  0
 29 30  1  0  0  0
 30 31  1  0  0  0
 31 32  1  0  0  0
 32 33  1  0  0  0
 33 34  1  0  0  0
 34 35  1  0  0  0
 35 36  1  0  0  0
  6 11  1  0  0  0
 11 12  2  0  0  0
 12 13  1  0  0  0
 13 14  2  0  0  0
 14 15  1  0  0  0
 15 16  2  0  0  0
 10  1  1  0  0  0
 36 32  1  0  0  0
 16 11  1  0  0  0
  8  3  1  0  0  0
 27 21  1  0  0  0
 19 20  1  0  0  0
M  END
> <minimizedAffinity>
-6.40451

> <CNNscore>
0.3015163541

> <CNNaffinity>
5.7782025337

> <CNN_VS>
1.7422225475

> <CNNaffinity_variance>
0.3147536814

$$$$
[H]c1c(C([H])([H])[H])nc2c([H])c(OC([H])([H])C([H])([H])C([H])([H])N3C([H])([H])C([H])([H])C([H])([H])C3([H])[H])c(OC([H])([H])[H])c([H])c2c1N([H])C1([H])C([H])([H])C([H])([H])N(C([H])([H])[H])C([H])([H])C1([H])[H]


 31 34  0  0  0  0  0  0  0  0999 V2000
   36.3672  -14.9642   37.4571 C   0  0  0  0  0  0  0  0  0  0  0  0
   36.5646  -16.2663   37.0587 C   0  0  0  0  0  0  0  0  0  0  0  0
   35.6426  -16.9870   36.3255 C   0  0  0  0  0  0  0  0  0  0  0  0
   35.8225  -18.2925   35.9172 C   0  0  0  0  0  0  0  0  0  0  0  0
   34.8446  -18.9404   35.1844 C   0  0  0  0  0  0  0  0  0  0  0  0
   33.6613  -18.3021   34.8403 C   0  0  0  0  0  0  0  0  0  0  0  0
   32.6057  -19.0186   34.0429 C   0  0  0  0  0  0  0  0  0  0  0  0
   33.5059  -17.0346   35.2462 N   0  0  0  0  0  0  0  0  0  0  0  0
   34.4549  -16.3860   35.9646 C   0  0  0  0  0  0  0  0  0  0  0  0
   34.2577  -15.0690   36.3692 C   0  0  0  0  0  0  0  0  0  0  0  0
   35.1606  -14.3367   37.0963 C   0  0  0  0  0  0  0  0  0  0  0  0
   38.2737  -13.4556   37.5450 C   0  0  0  0  0  0  0  0  0  0  0  0
   37.3139  -14.2662   38.1939 O   0  0  0  0  0  0  0  0  0  0  0  0
   37.0387  -18.9704   36.2446 N   0  0  0  0  0  0  0  0  0  0  0  0
   37.3968  -19.0482   37.1997 H   0  0  0  0  0  0  0  0  0  0  0  0
   37.8200  -19.5846   35.1771 C   0  0  0  0  0  0  0  0  0  0  0  0
   38.1606  -18.4897   34.1823 C   0  0  0  0  0  0  0  0  0  0  0  0
   39.2715  -18.9114   33.2703 C   0  0  0  0  0  0  0  0  0  0  0  0
   40.5173  -19.0916   33.9704 N   0  0  0  0  0  0  0  0  0  0  0  0
   41.2031  -20.2249   33.3946 C   0  0  0  0  0  0  0  0  0  0  0  0
   40.3072  -19.2467   35.3969 C   0  0  0  0  0  0  0  0  0  0  0  0
   39.1276  -20.1378   35.7095 C   0  0  0  0  0  0  0  0  0  0  0  0
   35.0106  -13.0425   37.5104 O   0  0  0  0  0  0  0  0  0  0  0  0
   34.1966  -12.0651   36.9727 C   0  0  0  0  0  0  0  0  0  0  0  0
   33.1656  -11.4669   37.8700 C   0  0  0  0  0  0  0  0  0  0  0  0
   31.9948  -12.4490   38.0294 C   0  0  0  0  0  0  0  0  0  0  0  0
   30.7889  -11.8853   37.4467 N   0  0  0  0  0  0  0  0  0  0  0  0
   30.8433  -10.4633   37.3346 C   0  0  0  0  0  0  0  0  0  0  0  0
   29.7250   -9.8568   38.1186 C   0  0  0  0  0  0  0  0  0  0  0  0
   28.7706  -11.0128   38.3248 C   0  0  0  0  0  0  0  0  0  0  0  0
   29.6532  -12.2393   38.2595 C   0  0  0  0  0  0  0  0  0  0  0  0
 12 13  1  0  0  0
 13  1  1  0  0  0
  1  2  2  0  0  0
  2  3  1  0  0  0
  3  4  2  0  0  0
  4 14  1  0  0  0
 14 16  1  0  0  0
 16 17  1  0  0  0
 17 18  1  0  0  0
 18 19  1  0  0  0
 19 20  1  0  0  0
 19 21  1  0  0  0
 21 22  1  0  0  0
  4  5  1  0  0  0
  5  6  2  0  0  0
  6  7  1  0  0  0
  6  8  1  0  0  0
  8  9  2  0  0  0
  9 10  1  0  0  0
 10 11  2  0  0  0
 11 23  1  0  0  0
 23 24  1  0  0  0
 24 25  1  0  0  0
 25 26  1  0  0  0
 26 27  1  0  0  0
 27 28  1  0  0  0
 28 29  1  0  0  0
 29 30  1  0  0  0
 30 31  1  0  0  0
 11  1  1  0  0  0
 31 27  1  0  0  0
  9  3  1  0  0  0
 22 16  1  0  0  0
 14 15  1  0  0  0
M  END
> <minimizedAffinity>
-8.25282

> <CNNscore>
0.9530915618

> <CNNaffinity>
6.9926466942

> <CNN_VS>
6.6646327972

> <CNNaffinity_variance>
0.0868173391

$$$$
[H]c1c(C([H])([H])[H])nc2c([H])c(OC([H])([H])C([H])([H])C([H])([H])N3C([H])([H])C([H])([H])C([H])([H])C3([H])[H])c(OC([H])([H])[H])c([H])c2c1N([H])C1([H])C([H])([H])C([H])([H])N(C([H])([H])[H])C([H])([H])C1([H])[H]


 31 34  0  0  0  0  0  0  0  0999 V2000
   36.0230  -13.9289   36.8252 C   0  0  0  0  0  0  0  0  0  0  0  0
   36.4720  -15.1125   36.2858 C   0  0  0  0  0  0  0  0  0  0  0  0
   35.6332  -16.0887   35.7855 C   0  0  0  0  0  0  0  0  0  0  0  0
   36.0645  -17.2808   35.2412 C   0  0  0  0  0  0  0  0  0  0  0  0
   35.1532  -18.2049   34.7627 C   0  0  0  0  0  0  0  0  0  0  0  0
   33.7876  -17.9632   34.8153 C   0  0  0  0  0  0  0  0  0  0  0  0
   32.8074  -18.9770   34.2914 C   0  0  0  0  0  0  0  0  0  0  0  0
   33.3893  -16.7998   35.3474 N   0  0  0  0  0  0  0  0  0  0  0  0
   34.2697  -15.8840   35.8203 C   0  0  0  0  0  0  0  0  0  0  0  0
   33.8182  -14.6862   36.3668 C   0  0  0  0  0  0  0  0  0  0  0  0
   34.6345  -13.7049   36.8675 C   0  0  0  0  0  0  0  0  0  0  0  0
   38.2202  -13.3082   37.6647 C   0  0  0  0  0  0  0  0  0  0  0  0
   36.8920  -12.9667   37.3202 O   0  0  0  0  0  0  0  0  0  0  0  0
   37.4669  -17.5503   35.1603 N   0  0  0  0  0  0  0  0  0  0  0  0
   38.1841  -16.8448   35.3449 H   0  0  0  0  0  0  0  0  0  0  0  0
   37.9136  -18.8902   34.7963 C   0  0  0  0  0  0  0  0  0  0  0  0
   38.7592  -18.7569   33.5427 C   0  0  0  0  0  0  0  0  0  0  0  0
   39.5813  -19.9872   33.3093 C   0  0  0  0  0  0  0  0  0  0  0  0
   40.5750  -20.1852   34.3330 N   0  0  0  0  0  0  0  0  0  0  0  0
   40.6784  -21.6011   34.5990 C   0  0  0  0  0  0  0  0  0  0  0  0
   40.2642  -19.4256   35.5287 C   0  0  0  0  0  0  0  0  0  0  0  0
   38.7954  -19.4821   35.8786 C   0  0  0  0  0  0  0  0  0  0  0  0
   34.2355  -12.5143   37.4081 O   0  0  0  0  0  0  0  0  0  0  0  0
   33.1363  -12.2673   38.2066 C   0  0  0  0  0  0  0  0  0  0  0  0
   32.0447  -11.4330   37.6250 C   0  0  0  0  0  0  0  0  0  0  0  0
   30.7011  -12.1589   37.7943 C   0  0  0  0  0  0  0  0  0  0  0  0
   29.6034  -11.2355   37.5616 N   0  0  0  0  0  0  0  0  0  0  0  0
   29.8347   -9.9484   38.1337 C   0  0  0  0  0  0  0  0  0  0  0  0
   28.7592   -9.6411   39.1247 C   0  0  0  0  0  0  0  0  0  0  0  0
   27.6630  -10.6227   38.7720 C   0  0  0  0  0  0  0  0  0  0  0  0
   28.3933  -11.7781   38.1245 C   0  0  0  0  0  0  0  0  0  0  0  0
 12 13  1  0  0  0
 13  1  1  0  0  0
  1  2  2  0  0  0
  2  3  1  0  0  0
  3  4  2  0  0  0
  4 14  1  0  0  0
 14 16  1  0  0  0
 16 17  1  0  0  0
 17 18  1  0  0  0
 18 19  1  0  0  0
 19 20  1  0  0  0
 19 21  1  0  0  0
 21 22  1  0  0  0
  4  5  1  0  0  0
  5  6  2  0  0  0
  6  7  1  0  0  0
  6  8  1  0  0  0
  8  9  2  0  0  0
  9 10  1  0  0  0
 10 11  2  0  0  0
 11 23  1  0  0  0
 23 24  1  0  0  0
 24 25  1  0  0  0
 25 26  1  0  0  0
 26 27  1  0  0  0
 27 28  1  0  0  0
 28 29  1  0  0  0
 29 30  1  0  0  0
 30 31  1  0  0  0
 11  1  1  0  0  0
 31 27  1  0  0  0
  9  3  1  0  0  0
 22 16  1  0  0  0
 14 15  1  0  0  0
M  END
> <minimizedAffinity>
-8.14368

> <CNNscore>
0.9122145772

> <CNNaffinity>
6.8496651649

> <CNN_VS>
6.2483644485

> <CNNaffinity_variance>
0.1013536453

$$$$
[H]c1c(C([H])([H])[H])nc2c([H])c(OC([H])([H])C([H])([H])C([H])([H])N3C([H])([H])C([H])([H])C([H])([H])C3([H])[H])c(OC([H])([H])[H])c([H])c2c1N([H])C1([H])C([H])([H])C([H])([H])N(C([H])([H])[H])C([H])([H])C1([H])[H]


 31 34  0  0  0  0  0  0  0  0999 V2000
   35.8941  -14.5881   36.5607 C   0  0  0  0  0  0  0  0  0  0  0  0
   36.5055  -15.6845   35.9974 C   0  0  0  0  0  0  0  0  0  0  0  0
   35.8124  -16.7513   35.4603 C   0  0  0  0  0  0  0  0  0  0  0  0
   36.4074  -17.8587   34.8917 C   0  0  0  0  0  0  0  0  0  0  0  0
   35.6352  -18.8842   34.3766 C   0  0  0  0  0  0  0  0  0  0  0  0
   34.2490  -18.8314   34.4162 C   0  0  0  0  0  0  0  0  0  0  0  0
   33.4211  -19.9540   33.8524 C   0  0  0  0  0  0  0  0  0  0  0  0
   33.6906  -17.7478   34.9724 N   0  0  0  0  0  0  0  0  0  0  0  0
   34.4334  -16.7344   35.4811 C   0  0  0  0  0  0  0  0  0  0  0  0
   33.8177  -15.6244   36.0518 C   0  0  0  0  0  0  0  0  0  0  0  0
   34.4877  -14.5556   36.5891 C   0  0  0  0  0  0  0  0  0  0  0  0
   37.8530  -13.7621   37.7434 C   0  0  0  0  0  0  0  0  0  0  0  0
   36.6191  -13.5309   37.0926 O   0  0  0  0  0  0  0  0  0  0  0  0
   37.8341  -17.9332   34.8236 N   0  0  0  0  0  0  0  0  0  0  0  0
   38.4301  -17.1184   34.6585 H   0  0  0  0  0  0  0  0  0  0  0  0
   38.4875  -19.2261   34.9937 C   0  0  0  0  0  0  0  0  0  0  0  0
   39.3716  -19.4460   33.7795 C   0  0  0  0  0  0  0  0  0  0  0  0
   40.3731  -20.5322   34.0270 C   0  0  0  0  0  0  0  0  0  0  0  0
   41.3282  -20.1760   35.0445 N   0  0  0  0  0  0  0  0  0  0  0  0
   41.6193  -21.3540   35.8278 C   0  0  0  0  0  0  0  0  0  0  0  0
   40.8477  -19.0798   35.8635 C   0  0  0  0  0  0  0  0  0  0  0  0
   39.3854  -19.2249   36.2156 C   0  0  0  0  0  0  0  0  0  0  0  0
   33.9250  -13.4453   37.1545 O   0  0  0  0  0  0  0  0  0  0  0  0
   32.6240  -12.9970   37.0387 C   0  0  0  0  0  0  0  0  0  0  0  0
   32.1380  -12.0395   38.0745 C   0  0  0  0  0  0  0  0  0  0  0  0
   31.5651  -10.7904   37.3872 C   0  0  0  0  0  0  0  0  0  0  0  0
   32.3701   -9.6267   37.7177 N   0  0  0  0  0  0  0  0  0  0  0  0
   31.9403   -8.4476   37.0375 C   0  0  0  0  0  0  0  0  0  0  0  0
   33.0569   -7.9208   36.1956 C   0  0  0  0  0  0  0  0  0  0  0  0
   34.2812   -8.6037   36.7651 C   0  0  0  0  0  0  0  0  0  0  0  0
   33.7453   -9.8814   37.3718 C   0  0  0  0  0  0  0  0  0  0  0  0
 12 13  1  0  0  0
 13  1  1  0  0  0
  1  2  2  0  0  0
  2  3  1  0  0  0
  3  4  2  0  0  0
  4 14  1  0  0  0
 14 16  1  0  0  0
 16 17  1  0  0  0
 17 18  1  0  0  0
 18 19  1  0  0  0
 19 20  1  0  0  0
 19 21  1  0  0  0
 21 22  1  0  0  0
  4  5  1  0  0  0
  5  6  2  0  0  0
  6  7  1  0  0  0
  6  8  1  0  0  0
  8  9  2  0  0  0
  9 10  1  0  0  0
 10 11  2  0  0  0
 11 23  1  0  0  0
 23 24  1  0  0  0
 24 25  1  0  0  0
 25 26  1  0  0  0
 26 27  1  0  0  0
 27 28  1  0  0  0
 28 29  1  0  0  0
 29 30  1  0  0  0
 30 31  1  0  0  0
 11  1  1  0  0  0
 31 27  1  0  0  0
  9  3  1  0  0  0
 22 16  1  0  0  0
 14 15  1  0  0  0
M  END
> <minimizedAffinity>
-7.85687

> <CNNscore>
0.8545950055

> <CNNaffinity>
6.8537435532

> <CNN_VS>
5.8571748734

> <CNNaffinity_variance>
0.0768440813

$$$$
[H]c1c(C([H])([H])[H])nc2c([H])c(OC([H])([H])C([H])([H])C([H])([H])N3C([H])([H])C([H])([H])C([H])([H])C3([H])[H])c(OC([H])([H])[H])c([H])c2c1N([H])C1([H])C([H])([H])C([H])([H])N(C([H])([H])[H])C([H])([H])C1([H])[H]


 31 34  0  0  0  0  0  0  0  0999 V2000
   36.3941  -14.8594   37.4464 C   0  0  0  0  0  0  0  0  0  0  0  0
   36.6428  -16.1431   37.0179 C   0  0  0  0  0  0  0  0  0  0  0  0
   35.7412  -16.8904   36.2860 C   0  0  0  0  0  0  0  0  0  0  0  0
   35.9724  -18.1780   35.8479 C   0  0  0  0  0  0  0  0  0  0  0  0
   35.0115  -18.8551   35.1188 C   0  0  0  0  0  0  0  0  0  0  0  0
   33.7946  -18.2646   34.8084 C   0  0  0  0  0  0  0  0  0  0  0  0
   32.7581  -19.0124   34.0148 C   0  0  0  0  0  0  0  0  0  0  0  0
   33.5895  -17.0138   35.2430 N   0  0  0  0  0  0  0  0  0  0  0  0
   34.5212  -16.3370   35.9581 C   0  0  0  0  0  0  0  0  0  0  0  0
   34.2721  -15.0386   36.3931 C   0  0  0  0  0  0  0  0  0  0  0  0
   35.1541  -14.2806   37.1194 C   0  0  0  0  0  0  0  0  0  0  0  0
   38.3270  -13.3845   37.5276 C   0  0  0  0  0  0  0  0  0  0  0  0
   37.3216  -14.1338   38.1809 O   0  0  0  0  0  0  0  0  0  0  0  0
   37.2237  -18.8062   36.1402 N   0  0  0  0  0  0  0  0  0  0  0  0
   38.1094  -18.2963   36.1843 H   0  0  0  0  0  0  0  0  0  0  0  0
   37.2572  -20.2431   36.3881 C   0  0  0  0  0  0  0  0  0  0  0  0
   38.6102  -20.7484   35.9206 C   0  0  0  0  0  0  0  0  0  0  0  0
   38.9042  -22.1073   36.4782 C   0  0  0  0  0  0  0  0  0  0  0  0
   39.0582  -22.0909   37.9102 N   0  0  0  0  0  0  0  0  0  0  0  0
   38.4710  -23.2974   38.4449 C   0  0  0  0  0  0  0  0  0  0  0  0
   38.4785  -20.8961   38.4930 C   0  0  0  0  0  0  0  0  0  0  0  0
   37.1479  -20.5418   37.8707 C   0  0  0  0  0  0  0  0  0  0  0  0
   34.9534  -13.0029   37.5627 O   0  0  0  0  0  0  0  0  0  0  0  0
   33.8596  -12.1883   37.3460 C   0  0  0  0  0  0  0  0  0  0  0  0
   32.6856  -12.3687   38.2487 C   0  0  0  0  0  0  0  0  0  0  0  0
   31.3906  -12.1311   37.4567 C   0  0  0  0  0  0  0  0  0  0  0  0
   30.3766  -11.5525   38.3219 N   0  0  0  0  0  0  0  0  0  0  0  0
   29.7228  -12.5276   39.1339 C   0  0  0  0  0  0  0  0  0  0  0  0
   28.2577  -12.5225   38.8394 C   0  0  0  0  0  0  0  0  0  0  0  0
   28.0426  -11.1980   38.1399 C   0  0  0  0  0  0  0  0  0  0  0  0
   29.3852  -10.8842   37.5180 C   0  0  0  0  0  0  0  0  0  0  0  0
 12 13  1  0  0  0
 13  1  1  0  0  0
  1  2  2  0  0  0
  2  3  1  0  0  0
  3  4  2  0  0  0
  4 14  1  0  0  0
 14 16  1  0  0  0
 16 17  1  0  0  0
 17 18  1  0  0  0
 18 19  1  0  0  0
 19 20  1  0  0  0
 19 21  1  0  0  0
 21 22  1  0  0  0
  4  5  1  0  0  0
  5  6  2  0  0  0
  6  7  1  0  0  0
  6  8  1  0  0  0
  8  9  2  0  0  0
  9 10  1  0  0  0
 10 11  2  0  0  0
 11 23  1  0  0  0
 23 24  1  0  0  0
 24 25  1  0  0  0
 25 26  1  0  0  0
 26 27  1  0  0  0
 27 28  1  0  0  0
 28 29  1  0  0  0
 29 30  1  0  0  0
 30 31  1  0  0  0
 11  1  1  0  0  0
 31 27  1  0  0  0
  9  3  1  0  0  0
 22 16  1  0  0  0
 14 15  1  0  0  0
M  END
> <minimizedAffinity>
-7.44471

> <CNNscore>
0.8486660123

> <CNNaffinity>
6.6239309311

> <CNN_VS>
5.6215052605

> <CNNaffinity_variance>
0.1211692318

$$$$
[H]c1c(C([H])([H])[H])nc2c([H])c(OC([H])([H])C([H])([H])C([H])([H])N3C([H])([H])C([H])([H])C([H])([H])C3([H])[H])c(OC([H])([H])[H])c([H])c2c1N([H])C1([H])C([H])([H])C([H])([H])N(C([H])([H])[H])C([H])([H])C1([H])[H]


 31 34  0  0  0  0  0  0  0  0999 V2000
   36.0354  -14.1453   36.9655 C   0  0  0  0  0  0  0  0  0  0  0  0
   36.5143  -15.2557   36.3091 C   0  0  0  0  0  0  0  0  0  0  0  0
   35.7000  -16.2246   35.7567 C   0  0  0  0  0  0  0  0  0  0  0  0
   36.1614  -17.3441   35.0954 C   0  0  0  0  0  0  0  0  0  0  0  0
   35.2734  -18.2664   34.5717 C   0  0  0  0  0  0  0  0  0  0  0  0
   33.9017  -18.0954   34.6949 C   0  0  0  0  0  0  0  0  0  0  0  0
   32.9469  -19.1064   34.1208 C   0  0  0  0  0  0  0  0  0  0  0  0
   33.4740  -17.0019   35.3404 N   0  0  0  0  0  0  0  0  0  0  0  0
   34.3313  -16.0889   35.8588 C   0  0  0  0  0  0  0  0  0  0  0  0
   33.8497  -14.9649   36.5236 C   0  0  0  0  0  0  0  0  0  0  0  0
   34.6412  -13.9921   37.0776 C   0  0  0  0  0  0  0  0  0  0  0  0
   38.2755  -13.4108   37.5658 C   0  0  0  0  0  0  0  0  0  0  0  0
   36.8802  -13.1884   37.5104 O   0  0  0  0  0  0  0  0  0  0  0  0
   37.5699  -17.5386   34.9402 N   0  0  0  0  0  0  0  0  0  0  0  0
   38.2369  -16.7666   34.8661 H   0  0  0  0  0  0  0  0  0  0  0  0
   38.0979  -18.8969   34.8809 C   0  0  0  0  0  0  0  0  0  0  0  0
   38.9888  -18.9797   33.6546 C   0  0  0  0  0  0  0  0  0  0  0  0
   39.8802  -20.1821   33.7116 C   0  0  0  0  0  0  0  0  0  0  0  0
   40.8378  -20.1046   34.7847 N   0  0  0  0  0  0  0  0  0  0  0  0
   41.0000  -21.4254   35.3461 C   0  0  0  0  0  0  0  0  0  0  0  0
   40.4387  -19.1313   35.7831 C   0  0  0  0  0  0  0  0  0  0  0  0
   38.9609  -19.1981   36.0908 C   0  0  0  0  0  0  0  0  0  0  0  0
   34.2120  -12.8722   37.7340 O   0  0  0  0  0  0  0  0  0  0  0  0
   33.2527  -11.9641   37.3313 C   0  0  0  0  0  0  0  0  0  0  0  0
   31.8634  -12.1721   37.8336 C   0  0  0  0  0  0  0  0  0  0  0  0
   31.9144  -12.8455   39.2138 C   0  0  0  0  0  0  0  0  0  0  0  0
   30.5716  -13.1883   39.6507 N   0  0  0  0  0  0  0  0  0  0  0  0
   29.5669  -12.3948   39.0194 C   0  0  0  0  0  0  0  0  0  0  0  0
   28.7950  -11.6468   40.0577 C   0  0  0  0  0  0  0  0  0  0  0  0
   29.1178  -12.3855   41.3383 C   0  0  0  0  0  0  0  0  0  0  0  0
   30.4710  -13.0085   41.0766 C   0  0  0  0  0  0  0  0  0  0  0  0
 12 13  1  0  0  0
 13  1  1  0  0  0
  1  2  2  0  0  0
  2  3  1  0  0  0
  3  4  2  0  0  0
  4 14  1  0  0  0
 14 16  1  0  0  0
 16 17  1  0  0  0
 17 18  1  0  0  0
 18 19  1  0  0  0
 19 20  1  0  0  0
 19 21  1  0  0  0
 21 22  1  0  0  0
  4  5  1  0  0  0
  5  6  2  0  0  0
  6  7  1  0  0  0
  6  8  1  0  0  0
  8  9  2  0  0  0
  9 10  1  0  0  0
 10 11  2  0  0  0
 11 23  1  0  0  0
 23 24  1  0  0  0
 24 25  1  0  0  0
 25 26  1  0  0  0
 26 27  1  0  0  0
 27 28  1  0  0  0
 28 29  1  0  0  0
 29 30  1  0  0  0
 30 31  1  0  0  0
 11  1  1  0  0  0
 31 27  1  0  0  0
  9  3  1  0  0  0
 22 16  1  0  0  0
 14 15  1  0  0  0
M  END
> <minimizedAffinity>
-7.66148

> <CNNscore>
0.8289920688

> <CNNaffinity>
6.5533394814

> <CNN_VS>
5.4326663017

> <CNNaffinity_variance>
0.0872062743

$$$$
[H]c1c(C([H])([H])[H])nc2c([H])c(OC([H])([H])C([H])([H])C([H])([H])N3C([H])([H])C([H])([H])C([H])([H])C3([H])[H])c(OC([H])([H])[H])c([H])c2c1N([H])C1([H])C([H])([H])C([H])([H])N(C([H])([H])[H])C([H])([H])C1([H])[H]


 31 34  0  0  0  0  0  0  0  0999 V2000
   35.3601  -21.7687   39.0639 C   0  0  0  0  0  0  0  0  0  0  0  0
   35.5331  -20.8174   38.0849 C   0  0  0  0  0  0  0  0  0  0  0  0
   34.5148  -20.3749   37.2638 C   0  0  0  0  0  0  0  0  0  0  0  0
   34.6690  -19.4226   36.2774 C   0  0  0  0  0  0  0  0  0  0  0  0
   33.5927  -19.0374   35.4987 C   0  0  0  0  0  0  0  0  0  0  0  0
   32.3345  -19.5929   35.6840 C   0  0  0  0  0  0  0  0  0  0  0  0
   31.1724  -19.1649   34.8298 C   0  0  0  0  0  0  0  0  0  0  0  0
   32.2057  -20.5158   36.6468 N   0  0  0  0  0  0  0  0  0  0  0  0
   33.2505  -20.9037   37.4184 C   0  0  0  0  0  0  0  0  0  0  0  0
   33.0783  -21.8661   38.4091 C   0  0  0  0  0  0  0  0  0  0  0  0
   34.0757  -22.3175   39.2345 C   0  0  0  0  0  0  0  0  0  0  0  0
   37.6912  -21.6215   39.7438 C   0  0  0  0  0  0  0  0  0  0  0  0
   36.4043  -22.1928   39.8738 O   0  0  0  0  0  0  0  0  0  0  0  0
   35.9511  -18.8220   36.0741 N   0  0  0  0  0  0  0  0  0  0  0  0
   36.3300  -18.0917   36.6819 H   0  0  0  0  0  0  0  0  0  0  0  0
   36.7704  -19.2586   34.9492 C   0  0  0  0  0  0  0  0  0  0  0  0
   37.3683  -18.0138   34.3188 C   0  0  0  0  0  0  0  0  0  0  0  0
   38.5181  -18.3582   33.4225 C   0  0  0  0  0  0  0  0  0  0  0  0
   39.6355  -18.9039   34.1491 N   0  0  0  0  0  0  0  0  0  0  0  0
   40.2339  -19.9463   33.3479 C   0  0  0  0  0  0  0  0  0  0  0  0
   39.2350  -19.3825   35.4582 C   0  0  0  0  0  0  0  0  0  0  0  0
   37.9209  -20.1273   35.4194 C   0  0  0  0  0  0  0  0  0  0  0  0
   33.9509  -23.2556   40.2212 O   0  0  0  0  0  0  0  0  0  0  0  0
   33.3892  -23.1047   41.4736 C   0  0  0  0  0  0  0  0  0  0  0  0
   34.2661  -23.3715   42.6508 C   0  0  0  0  0  0  0  0  0  0  0  0
   34.9415  -22.0637   43.0918 C   0  0  0  0  0  0  0  0  0  0  0  0
   34.0899  -20.9307   42.7714 N   0  0  0  0  0  0  0  0  0  0  0  0
   34.7964  -19.8778   42.1158 C   0  0  0  0  0  0  0  0  0  0  0  0
   34.7024  -18.6290   42.9313 C   0  0  0  0  0  0  0  0  0  0  0  0
   33.5425  -18.9026   43.8638 C   0  0  0  0  0  0  0  0  0  0  0  0
   33.5092  -20.4100   43.9828 C   0  0  0  0  0  0  0  0  0  0  0  0
 12 13  1  0  0  0
 13  1  1  0  0  0
  1  2  2  0  0  0
  2  3  1  0  0  0
  3  4  2  0  0  0
  4 14  1  0  0  0
 14 16  1  0  0  0
 16 17  1  0  0  0
 17 18  1  0  0  0
 18 19  1  0  0  0
 19 20  1  0  0  0
 19 21  1  0  0  0
 21 22  1  0  0  0
  4  5  1  0  0  0
  5  6  2  0  0  0
  6  7  1  0  0  0
  6  8  1  0  0  0
  8  9  2  0  0  0
  9 10  1  0  0  0
 10 11  2  0  0  0
 11 23  1  0  0  0
 23 24  1  0  0  0
 24 25  1  0  0  0
 25 26  1  0  0  0
 26 27  1  0  0  0
 27 28  1  0  0  0
 28 29  1  0  0  0
 29 30  1  0  0  0
 30 31  1  0  0  0
 11  1  1  0  0  0
 31 27  1  0  0  0
  9  3  1  0  0  0
 22 16  1  0  0  0
 14 15  1  0  0  0
M  END
> <minimizedAffinity>
-4.43492

> <CNNscore>
0.3713624775

> <CNNaffinity>
4.9705228806

> <CNN_VS>
1.8458657265

> <CNNaffinity_variance>
0.4782912731

$$$$
[H]c1c(C([H])([H])[H])nc2c([H])c(OC([H])([H])C([H])([H])C([H])([H])N3C([H])([H])C([H])([H])C([H])([H])C3([H])[H])c(OC([H])([H])[H])c([H])c2c1N([H])C1([H])C([H])([H])C([H])([H])N(C([H])([H])[H])C([H])([H])C1([H])[H]


 31 34  0  0  0  0  0  0  0  0999 V2000
   35.7526  -21.4917   37.3798 C   0  0  0  0  0  0  0  0  0  0  0  0
   34.6640  -21.0490   36.6640 C   0  0  0  0  0  0  0  0  0  0  0  0
   34.4321  -19.7188   36.3744 C   0  0  0  0  0  0  0  0  0  0  0  0
   33.3472  -19.2561   35.6586 C   0  0  0  0  0  0  0  0  0  0  0  0
   33.1922  -17.9035   35.4141 C   0  0  0  0  0  0  0  0  0  0  0  0
   34.1159  -16.9775   35.8781 C   0  0  0  0  0  0  0  0  0  0  0  0
   33.9351  -15.5091   35.6051 C   0  0  0  0  0  0  0  0  0  0  0  0
   35.1623  -17.4470   36.5709 N   0  0  0  0  0  0  0  0  0  0  0  0
   35.3284  -18.7693   36.8186 C   0  0  0  0  0  0  0  0  0  0  0  0
   36.4284  -19.2198   37.5427 C   0  0  0  0  0  0  0  0  0  0  0  0
   36.6765  -20.5352   37.8395 C   0  0  0  0  0  0  0  0  0  0  0  0
   35.0411  -23.8108   37.1969 C   0  0  0  0  0  0  0  0  0  0  0  0
   35.9579  -22.8365   37.6546 O   0  0  0  0  0  0  0  0  0  0  0  0
   32.3871  -20.1892   35.1553 N   0  0  0  0  0  0  0  0  0  0  0  0
   32.4129  -20.5598   34.2022 H   0  0  0  0  0  0  0  0  0  0  0  0
   31.3113  -20.6435   36.0290 C   0  0  0  0  0  0  0  0  0  0  0  0
   30.0011  -20.2567   35.3671 C   0  0  0  0  0  0  0  0  0  0  0  0
   28.8496  -21.0065   35.9635 C   0  0  0  0  0  0  0  0  0  0  0  0
   28.9221  -22.4211   35.7025 N   0  0  0  0  0  0  0  0  0  0  0  0
   28.4543  -23.1246   36.8740 C   0  0  0  0  0  0  0  0  0  0  0  0
   30.2627  -22.8229   35.3225 C   0  0  0  0  0  0  0  0  0  0  0  0
   31.3229  -22.1536   36.1658 C   0  0  0  0  0  0  0  0  0  0  0  0
   37.7435  -21.0218   38.5422 O   0  0  0  0  0  0  0  0  0  0  0  0
   39.0873  -20.8070   38.3075 C   0  0  0  0  0  0  0  0  0  0  0  0
   40.0558  -21.6385   39.0798 C   0  0  0  0  0  0  0  0  0  0  0  0
   41.4638  -21.0376   38.9486 C   0  0  0  0  0  0  0  0  0  0  0  0
   41.5267  -19.7606   39.6393 N   0  0  0  0  0  0  0  0  0  0  0  0
   42.6630  -18.9841   39.2606 C   0  0  0  0  0  0  0  0  0  0  0  0
   43.5054  -18.7106   40.4642 C   0  0  0  0  0  0  0  0  0  0  0  0
   42.5714  -18.9933   41.6207 C   0  0  0  0  0  0  0  0  0  0  0  0
   41.5778  -19.9870   41.0613 C   0  0  0  0  0  0  0  0  0  0  0  0
 12 13  1  0  0  0
 13  1  1  0  0  0
  1  2  2  0  0  0
  2  3  1  0  0  0
  3  4  2  0  0  0
  4 14  1  0  0  0
 14 16  1  0  0  0
 16 17  1  0  0  0
 17 18  1  0  0  0
 18 19  1  0  0  0
 19 20  1  0  0  0
 19 21  1  0  0  0
 21 22  1  0  0  0
  4  5  1  0  0  0
  5  6  2  0  0  0
  6  7  1  0  0  0
  6  8  1  0  0  0
  8  9  2  0  0  0
  9 10  1  0  0  0
 10 11  2  0  0  0
 11 23  1  0  0  0
 23 24  1  0  0  0
 24 25  1  0  0  0
 25 26  1  0  0  0
 26 27  1  0  0  0
 27 28  1  0  0  0
 28 29  1  0  0  0
 29 30  1  0  0  0
 30 31  1  0  0  0
 11  1  1  0  0  0
 31 27  1  0  0  0
  9  3  1  0  0  0
 22 16  1  0  0  0
 14 15  1  0  0  0
M  END
> <minimizedAffinity>
-4.98550

> <CNNscore>
0.3652688563

> <CNNaffinity>
4.8227219582

> <CNN_VS>
1.7615901232

> <CNNaffinity_variance>
0.3462284803

$$$$
[H]c1c(C([H])([H])[H])nc2c([H])c(OC([H])([H])C([H])([H])C([H])([H])N3C([H])([H])C([H])([H])C([H])([H])C3([H])[H])c(OC([H])([H])[H])c([H])c2c1N([H])C1([H])C([H])([H])C([H])([H])N(C([H])([H])[H])C([H])([H])C1([H])[H]


 31 34  0  0  0  0  0  0  0  0999 V2000
   38.6650  -20.6269   34.9462 C   0  0  0  0  0  0  0  0  0  0  0  0
   37.3863  -20.1191   34.9293 C   0  0  0  0  0  0  0  0  0  0  0  0
   37.0153  -18.9662   35.5928 C   0  0  0  0  0  0  0  0  0  0  0  0
   35.7391  -18.4419   35.5876 C   0  0  0  0  0  0  0  0  0  0  0  0
   35.4544  -17.2798   36.2816 C   0  0  0  0  0  0  0  0  0  0  0  0
   36.4360  -16.6108   36.9991 C   0  0  0  0  0  0  0  0  0  0  0  0
   36.1126  -15.3477   37.7497 C   0  0  0  0  0  0  0  0  0  0  0  0
   37.6687  -17.1360   36.9915 N   0  0  0  0  0  0  0  0  0  0  0  0
   37.9637  -18.2738   36.3163 C   0  0  0  0  0  0  0  0  0  0  0  0
   39.2562  -18.7898   36.3320 C   0  0  0  0  0  0  0  0  0  0  0  0
   39.6442  -19.9316   35.6795 C   0  0  0  0  0  0  0  0  0  0  0  0
   38.8677  -23.0505   34.8916 C   0  0  0  0  0  0  0  0  0  0  0  0
   39.0067  -21.7888   34.2685 O   0  0  0  0  0  0  0  0  0  0  0  0
   34.7108  -19.1020   34.8442 N   0  0  0  0  0  0  0  0  0  0  0  0
   34.8781  -19.5676   33.9489 H   0  0  0  0  0  0  0  0  0  0  0  0
   33.3515  -19.1201   35.3726 C   0  0  0  0  0  0  0  0  0  0  0  0
   32.4070  -19.0853   34.1847 C   0  0  0  0  0  0  0  0  0  0  0  0
   31.0212  -19.4930   34.5811 C   0  0  0  0  0  0  0  0  0  0  0  0
   30.9514  -20.8719   34.9913 N   0  0  0  0  0  0  0  0  0  0  0  0
   30.0225  -20.9726   36.0928 C   0  0  0  0  0  0  0  0  0  0  0  0
   32.2618  -21.3916   35.3320 C   0  0  0  0  0  0  0  0  0  0  0  0
   33.0802  -20.4046   36.1315 C   0  0  0  0  0  0  0  0  0  0  0  0
   40.9003  -20.4711   35.6641 O   0  0  0  0  0  0  0  0  0  0  0  0
   42.1117  -19.8083   35.6526 C   0  0  0  0  0  0  0  0  0  0  0  0
   43.3100  -20.5702   36.1103 C   0  0  0  0  0  0  0  0  0  0  0  0
   43.2099  -20.8197   37.6231 C   0  0  0  0  0  0  0  0  0  0  0  0
   42.6668  -19.6465   38.2865 N   0  0  0  0  0  0  0  0  0  0  0  0
   43.6724  -18.8569   38.9212 C   0  0  0  0  0  0  0  0  0  0  0  0
   43.3865  -18.7655   40.3852 C   0  0  0  0  0  0  0  0  0  0  0  0
   41.9328  -19.1730   40.4872 C   0  0  0  0  0  0  0  0  0  0  0  0
   41.7098  -20.0586   39.2815 C   0  0  0  0  0  0  0  0  0  0  0  0
 12 13  1  0  0  0
 13  1  1  0  0  0
  1  2  2  0  0  0
  2  3  1  0  0  0
  3  4  2  0  0  0
  4 14  1  0  0  0
 14 16  1  0  0  0
 16 17  1  0  0  0
 17 18  1  0  0  0
 18 19  1  0  0  0
 19 20  1  0  0  0
 19 21  1  0  0  0
 21 22  1  0  0  0
  4  5  1  0  0  0
  5  6  2  0  0  0
  6  7  1  0  0  0
  6  8  1  0  0  0
  8  9  2  0  0  0
  9 10  1  0  0  0
 10 11  2  0  0  0
 11 23  1  0  0  0
 23 24  1  0  0  0
 24 25  1  0  0  0
 25 26  1  0  0  0
 26 27  1  0  0  0
 27 28  1  0  0  0
 28 29  1  0  0  0
 29 30  1  0  0  0
 30 31  1  0  0  0
 11  1  1  0  0  0
 31 27  1  0  0  0
  9  3  1  0  0  0
 22 16  1  0  0  0
 14 15  1  0  0  0
M  END
> <minimizedAffinity>
-5.14964

> <CNNscore>
0.2988437414

> <CNNaffinity>
5.1424317360

> <CNN_VS>
1.5367835760

> <CNNaffinity_variance>
0.4628496766

$$$$
[H]c1c(C([H])([H])[H])nc2c([H])c(OC([H])([H])C([H])([H])C([H])([H])N3C([H])([H])C([H])([H])C([H])([H])C3([H])[H])c(OC([H])([H])[H])c([H])c2c1N([H])C1([H])C([H])([H])C([H])([H])N(C([H])([H])[H])C([H])([H])C1([H])[H]


 31 34  0  0  0  0  0  0  0  0999 V2000
   37.1548  -20.0447   37.3337 C   0  0  0  0  0  0  0  0  0  0  0  0
   36.5587  -18.9444   36.7616 C   0  0  0  0  0  0  0  0  0  0  0  0
   35.2420  -18.9209   36.3460 C   0  0  0  0  0  0  0  0  0  0  0  0
   34.6272  -17.8279   35.7707 C   0  0  0  0  0  0  0  0  0  0  0  0
   33.3011  -17.8916   35.3825 C   0  0  0  0  0  0  0  0  0  0  0  0
   32.5542  -19.0480   35.5580 C   0  0  0  0  0  0  0  0  0  0  0  0
   31.1127  -19.1037   35.1311 C   0  0  0  0  0  0  0  0  0  0  0  0
   33.1695  -20.0981   36.1184 N   0  0  0  0  0  0  0  0  0  0  0  0
   34.4681  -20.0514   36.5044 C   0  0  0  0  0  0  0  0  0  0  0  0
   35.0737  -21.1631   37.0830 C   0  0  0  0  0  0  0  0  0  0  0  0
   36.3783  -21.2059   37.5027 C   0  0  0  0  0  0  0  0  0  0  0  0
   39.5250  -19.9893   36.7885 C   0  0  0  0  0  0  0  0  0  0  0  0
   38.4814  -20.0370   37.7414 O   0  0  0  0  0  0  0  0  0  0  0  0
   35.3683  -16.6178   35.5913 N   0  0  0  0  0  0  0  0  0  0  0  0
   36.0044  -16.4621   34.8054 H   0  0  0  0  0  0  0  0  0  0  0  0
   35.2237  -15.5441   36.5678 C   0  0  0  0  0  0  0  0  0  0  0  0
   36.2161  -14.4585   36.1922 C   0  0  0  0  0  0  0  0  0  0  0  0
   35.8882  -13.1647   36.8723 C   0  0  0  0  0  0  0  0  0  0  0  0
   34.6377  -12.6098   36.4217 N   0  0  0  0  0  0  0  0  0  0  0  0
   33.9717  -12.0097   37.5542 C   0  0  0  0  0  0  0  0  0  0  0  0
   33.8153  -13.6123   35.7721 C   0  0  0  0  0  0  0  0  0  0  0  0
   33.8369  -14.9341   36.5038 C   0  0  0  0  0  0  0  0  0  0  0  0
   37.0115  -22.2720   38.0785 O   0  0  0  0  0  0  0  0  0  0  0  0
   36.8256  -22.7904   39.3449 C   0  0  0  0  0  0  0  0  0  0  0  0
   36.4984  -21.8260   40.4352 C   0  0  0  0  0  0  0  0  0  0  0  0
   37.7843  -21.4496   41.1874 C   0  0  0  0  0  0  0  0  0  0  0  0
   38.6744  -22.5961   41.2568 N   0  0  0  0  0  0  0  0  0  0  0  0
   38.6595  -23.2293   42.5360 C   0  0  0  0  0  0  0  0  0  0  0  0
   40.0335  -23.2030   43.1231 C   0  0  0  0  0  0  0  0  0  0  0  0
   40.9212  -22.9165   41.9317 C   0  0  0  0  0  0  0  0  0  0  0  0
   40.0217  -22.1749   40.9681 C   0  0  0  0  0  0  0  0  0  0  0  0
 12 13  1  0  0  0
 13  1  1  0  0  0
  1  2  2  0  0  0
  2  3  1  0  0  0
  3  4  2  0  0  0
  4 14  1  0  0  0
 14 16  1  0  0  0
 16 17  1  0  0  0
 17 18  1  0  0  0
 18 19  1  0  0  0
 19 20  1  0  0  0
 19 21  1  0  0  0
 21 22  1  0  0  0
  4  5  1  0  0  0
  5  6  2  0  0  0
  6  7  1  0  0  0
  6  8  1  0  0  0
  8  9  2  0  0  0
  9 10  1  0  0  0
 10 11  2  0  0  0
 11 23  1  0  0  0
 23 24  1  0  0  0
 24 25  1  0  0  0
 25 26  1  0  0  0
 26 27  1  0  0  0
 27 28  1  0  0  0
 28 29  1  0  0  0
 29 30  1  0  0  0
 30 31  1  0  0  0
 11  1  1  0  0  0
 31 27  1  0  0  0
  9  3  1  0  0  0
 22 16  1  0  0  0
 14 15  1  0  0  0
M  END
> <minimizedAffinity>
-5.04563

> <CNNscore>
0.2806575894

> <CNNaffinity>
5.2690138817

> <CNN_VS>
1.4787887335

> <CNNaffinity_variance>
0.2488712966

$$$$
[H]c1c(OC([H])([H])C([H])([H])C([H])([H])N2C([H])([H])C([H])([H])C([H])([H])C2([H])[H])c(OC([H])([H])[H])c([H])c2c(N([H])C3([H])C([H])([H])C([H])([H])N(C([H])(C([H])([H])[H])C([H])([H])[H])C([H])([H])C3([H])[H])nc(N3C([H])([H])C([H])([H])C(F)(F)C([H])([H])C3([H])[H])nc12


 40 44  0  0  0  0  0  0  0  0999 V2000
   36.2537  -13.9201   36.9134 C   0  0  0  0  0  0  0  0  0  0  0  0
   36.7867  -15.1677   36.6719 C   0  0  0  0  0  0  0  0  0  0  0  0
   36.0219  -16.2564   36.3641 C   0  0  0  0  0  0  0  0  0  0  0  0
   36.5626  -17.4915   36.1246 C   0  0  0  0  0  0  0  0  0  0  0  0
   35.6942  -18.5023   35.8256 N   0  0  0  0  0  0  0  0  0  0  0  0
   34.3612  -18.3296   35.7600 C   0  0  0  0  0  0  0  0  0  0  0  0
   33.8665  -17.1062   36.0000 N   0  0  0  0  0  0  0  0  0  0  0  0
   34.6458  -16.0402   36.3048 C   0  0  0  0  0  0  0  0  0  0  0  0
   34.0835  -14.8089   36.5401 C   0  0  0  0  0  0  0  0  0  0  0  0
   34.8823  -13.7016   36.8546 C   0  0  0  0  0  0  0  0  0  0  0  0
   33.4695  -19.3797   35.4473 N   0  0  0  0  0  0  0  0  0  0  0  0
   33.7736  -20.7389   35.7901 C   0  0  0  0  0  0  0  0  0  0  0  0
   32.4588  -21.4974   36.0140 C   0  0  0  0  0  0  0  0  0  0  0  0
   31.6492  -21.5032   34.7451 C   0  0  0  0  0  0  0  0  0  0  0  0
   31.9786  -22.5846   33.9350 F   0  0  0  0  0  0  0  0  0  0  0  0
   30.3123  -21.5915   35.0798 F   0  0  0  0  0  0  0  0  0  0  0  0
   31.8533  -20.2659   33.9286 C   0  0  0  0  0  0  0  0  0  0  0  0
   32.2360  -19.0690   34.7759 C   0  0  0  0  0  0  0  0  0  0  0  0
   38.4681  -13.1377   37.5538 C   0  0  0  0  0  0  0  0  0  0  0  0
   37.1198  -12.8850   37.2177 O   0  0  0  0  0  0  0  0  0  0  0  0
   37.9500  -17.7279   36.1755 N   0  0  0  0  0  0  0  0  0  0  0  0
   38.5747  -16.9832   36.5801 H   0  0  0  0  0  0  0  0  0  0  0  0
   38.5972  -18.9208   35.7119 C   0  0  0  0  0  0  0  0  0  0  0  0
   38.9173  -18.9664   34.2517 C   0  0  0  0  0  0  0  0  0  0  0  0
   39.8151  -20.1571   33.9369 C   0  0  0  0  0  0  0  0  0  0  0  0
   39.7372  -21.1434   34.9999 N   0  0  0  0  0  0  0  0  0  0  0  0
   40.2459  -20.6580   36.2573 C   0  0  0  0  0  0  0  0  0  0  0  0
   39.8866  -19.1749   36.4565 C   0  0  0  0  0  0  0  0  0  0  0  0
   40.2567  -22.3978   34.5950 C   0  0  0  0  0  0  0  0  0  0  0  0
   39.2630  -23.4340   34.1872 C   0  0  0  0  0  0  0  0  0  0  0  0
   41.2982  -22.2814   33.4942 C   0  0  0  0  0  0  0  0  0  0  0  0
   34.3627  -12.5520   37.0737 O   0  0  0  0  0  0  0  0  0  0  0  0
   33.7662  -11.4190   37.2795 C   0  0  0  0  0  0  0  0  0  0  0  0
   32.5540  -11.5978   38.2003 C   0  0  0  0  0  0  0  0  0  0  0  0
   31.3042  -11.0033   37.6408 C   0  0  0  0  0  0  0  0  0  0  0  0
   30.1873  -11.8950   37.5515 N   0  0  0  0  0  0  0  0  0  0  0  0
   29.8793  -12.5423   38.8192 C   0  0  0  0  0  0  0  0  0  0  0  0
   29.2750  -11.4751   39.7014 C   0  0  0  0  0  0  0  0  0  0  0  0
   28.7176  -10.4686   38.7303 C   0  0  0  0  0  0  0  0  0  0  0  0
   28.9958  -11.0731   37.3770 C   0  0  0  0  0  0  0  0  0  0  0  0
 19 20  1  0  0  0
 20  1  1  0  0  0
  1  2  2  0  0  0
  2  3  1  0  0  0
  3  4  2  0  0  0
  4 21  1  0  0  0
 21 23  1  0  0  0
 23 24  1  0  0  0
 24 25  1  0  0  0
 25 26  1  0  0  0
 26 27  1  0  0  0
 27 28  1  0  0  0
 26 29  1  0  0  0
 29 30  1  0  0  0
 29 31  1  0  0  0
  4  5  1  0  0  0
  5  6  2  0  0  0
  6  7  1  0  0  0
  7  8  2  0  0  0
  8  9  1  0  0  0
  9 10  2  0  0  0
 10 32  1  0  0  0
 32 33  1  0  0  0
 33 34  1  0  0  0
 34 35  1  0  0  0
 35 36  1  0  0  0
 36 37  1  0  0  0
 37 38  1  0  0  0
 38 39  1  0  0  0
 39 40  1  0  0  0
  6 11  1  0  0  0
 11 12  1  0  0  0
 12 13  1  0  0  0
 13 14  1  0  0  0
 14 15  1  0  0  0
 14 16  1  0  0  0
 14 17  1  0  0  0
 17 18  1  0  0  0
 10  1  1  0  0  0
 40 36  1  0  0  0
 18 11  1  0  0  0
  8  3  1  0  0  0
 28 23  1  0  0  0
 21 22  1  0  0  0
M  END
> <minimizedAffinity>
-8.03408

> <CNNscore>
0.5927554965

> <CNNaffinity>
7.2799553871

> <CNN_VS>
4.3152337074

> <CNNaffinity_variance>
0.0311506130

$$$$
[H]c1c(OC([H])([H])C([H])([H])C([H])([H])N2C([H])([H])C([H])([H])C([H])([H])C2([H])[H])c(OC([H])([H])[H])c([H])c2c(N([H])C3([H])C([H])([H])C([H])([H])N(C([H])(C([H])([H])[H])C([H])([H])[H])C([H])([H])C3([H])[H])nc(N3C([H])([H])C([H])([H])C(F)(F)C([H])([H])C3([H])[H])nc12


 40 44  0  0  0  0  0  0  0  0999 V2000
   36.1993  -13.8489   37.0490 C   0  0  0  0  0  0  0  0  0  0  0  0
   36.7041  -15.0636   36.6384 C   0  0  0  0  0  0  0  0  0  0  0  0
   35.9111  -16.1239   36.3037 C   0  0  0  0  0  0  0  0  0  0  0  0
   36.4238  -17.3262   35.8956 C   0  0  0  0  0  0  0  0  0  0  0  0
   35.5286  -18.3106   35.5871 N   0  0  0  0  0  0  0  0  0  0  0  0
   34.1959  -18.1426   35.6685 C   0  0  0  0  0  0  0  0  0  0  0  0
   33.7290  -16.9516   36.0716 N   0  0  0  0  0  0  0  0  0  0  0  0
   34.5361  -15.9136   36.3996 C   0  0  0  0  0  0  0  0  0  0  0  0
   34.0015  -14.7148   36.8055 C   0  0  0  0  0  0  0  0  0  0  0  0
   34.8290  -13.6364   37.1452 C   0  0  0  0  0  0  0  0  0  0  0  0
   33.2762  -19.1650   35.3451 N   0  0  0  0  0  0  0  0  0  0  0  0
   31.9797  -18.8568   34.8144 C   0  0  0  0  0  0  0  0  0  0  0  0
   31.5210  -20.0205   33.9257 C   0  0  0  0  0  0  0  0  0  0  0  0
   31.4054  -21.2765   34.7470 C   0  0  0  0  0  0  0  0  0  0  0  0
   30.1448  -21.3956   35.3222 F   0  0  0  0  0  0  0  0  0  0  0  0
   31.6190  -22.3613   33.9195 F   0  0  0  0  0  0  0  0  0  0  0  0
   32.4022  -21.3267   35.8619 C   0  0  0  0  0  0  0  0  0  0  0  0
   33.6578  -20.5361   35.5528 C   0  0  0  0  0  0  0  0  0  0  0  0
   38.4652  -13.1159   37.5533 C   0  0  0  0  0  0  0  0  0  0  0  0
   37.0927  -12.8409   37.3651 O   0  0  0  0  0  0  0  0  0  0  0  0
   37.8091  -17.5557   35.7882 N   0  0  0  0  0  0  0  0  0  0  0  0
   38.4720  -16.7987   36.0983 H   0  0  0  0  0  0  0  0  0  0  0  0
   38.4054  -18.7570   35.2803 C   0  0  0  0  0  0  0  0  0  0  0  0
   38.6456  -18.7951   33.8046 C   0  0  0  0  0  0  0  0  0  0  0  0
   39.5001  -20.0008   33.4318 C   0  0  0  0  0  0  0  0  0  0  0  0
   39.4590  -20.9955   34.4891 N   0  0  0  0  0  0  0  0  0  0  0  0
   40.0445  -20.5326   35.7212 C   0  0  0  0  0  0  0  0  0  0  0  0
   39.7274  -19.0445   35.9520 C   0  0  0  0  0  0  0  0  0  0  0  0
   39.9297  -22.2562   34.0461 C   0  0  0  0  0  0  0  0  0  0  0  0
   41.3569  -22.3243   33.6148 C   0  0  0  0  0  0  0  0  0  0  0  0
   39.6860  -23.3680   35.0534 C   0  0  0  0  0  0  0  0  0  0  0  0
   34.3352  -12.5170   37.5229 O   0  0  0  0  0  0  0  0  0  0  0  0
   33.8428  -11.4077   37.9797 C   0  0  0  0  0  0  0  0  0  0  0  0
   33.4399  -10.4742   36.8327 C   0  0  0  0  0  0  0  0  0  0  0  0
   34.5996   -9.7450   36.2397 C   0  0  0  0  0  0  0  0  0  0  0  0
   34.6745   -8.3506   36.5565 N   0  0  0  0  0  0  0  0  0  0  0  0
   35.3217   -7.5686   35.5123 C   0  0  0  0  0  0  0  0  0  0  0  0
   34.3437   -7.5097   34.3624 C   0  0  0  0  0  0  0  0  0  0  0  0
   33.0015   -7.7201   35.0113 C   0  0  0  0  0  0  0  0  0  0  0  0
   33.3181   -7.8209   36.4823 C   0  0  0  0  0  0  0  0  0  0  0  0
 19 20  1  0  0  0
 20  1  1  0  0  0
  1  2  2  0  0  0
  2  3  1  0  0  0
  3  4  2  0  0  0
  4 21  1  0  0  0
 21 23  1  0  0  0
 23 24  1  0  0  0
 24 25  1  0  0  0
 25 26  1  0  0  0
 26 27  1  0  0  0
 27 28  1  0  0  0
 26 29  1  0  0  0
 29 30  1  0  0  0
 29 31  1  0  0  0
  4  5  1  0  0  0
  5  6  2  0  0  0
  6  7  1  0  0  0
  7  8  2  0  0  0
  8  9  1  0  0  0
  9 10  2  0  0  0
 10 32  1  0  0  0
 32 33  1  0  0  0
 33 34  1  0  0  0
 34 35  1  0  0  0
 35 36  1  0  0  0
 36 37  1  0  0  0
 37 38  1  0  0  0
 38 39  1  0  0  0
 39 40  1  0  0  0
  6 11  1  0  0  0
 11 12  1  0  0  0
 12 13  1  0  0  0
 13 14  1  0  0  0
 14 15  1  0  0  0
 14 16  1  0  0  0
 14 17  1  0  0  0
 17 18  1  0  0  0
 10  1  1  0  0  0
 40 36  1  0  0  0
 18 11  1  0  0  0
  8  3  1  0  0  0
 28 23  1  0  0  0
 21 22  1  0  0  0
M  END
> <minimizedAffinity>
-6.76651

> <CNNscore>
0.5892486572

> <CNNaffinity>
7.4067015648

> <CNN_VS>
4.3643889427

> <CNNaffinity_variance>
0.1136213094

$$$$
[H]c1c(OC([H])([H])C([H])([H])C([H])([H])N2C([H])([H])C([H])([H])C([H])([H])C2([H])[H])c(OC([H])([H])[H])c([H])c2c(N([H])C3([H])C([H])([H])C([H])([H])N(C([H])(C([H])([H])[H])C([H])([H])[H])C([H])([H])C3([H])[H])nc(N3C([H])([H])C([H])([H])C(F)(F)C([H])([H])C3([H])[H])nc12


 40 44  0  0  0  0  0  0  0  0999 V2000
   36.2138  -14.4261   36.4701 C   0  0  0  0  0  0  0  0  0  0  0  0
   36.7514  -15.6527   36.1453 C   0  0  0  0  0  0  0  0  0  0  0  0
   35.9929  -16.7753   35.9734 C   0  0  0  0  0  0  0  0  0  0  0  0
   36.5380  -17.9890   35.6492 C   0  0  0  0  0  0  0  0  0  0  0  0
   35.6757  -19.0380   35.5033 N   0  0  0  0  0  0  0  0  0  0  0  0
   34.3445  -18.9217   35.6629 C   0  0  0  0  0  0  0  0  0  0  0  0
   33.8454  -17.7178   35.9799 N   0  0  0  0  0  0  0  0  0  0  0  0
   34.6185  -16.6173   36.1463 C   0  0  0  0  0  0  0  0  0  0  0  0
   34.0517  -15.4084   36.4701 C   0  0  0  0  0  0  0  0  0  0  0  0
   34.8439  -14.2657   36.6426 C   0  0  0  0  0  0  0  0  0  0  0  0
   33.4586  -20.0111   35.5076 N   0  0  0  0  0  0  0  0  0  0  0  0
   33.4023  -21.0664   36.4774 C   0  0  0  0  0  0  0  0  0  0  0  0
   31.9870  -21.6591   36.4801 C   0  0  0  0  0  0  0  0  0  0  0  0
   31.6756  -22.2458   35.1294 C   0  0  0  0  0  0  0  0  0  0  0  0
   32.0855  -23.5719   35.0426 F   0  0  0  0  0  0  0  0  0  0  0  0
   30.3098  -22.1905   34.9330 F   0  0  0  0  0  0  0  0  0  0  0  0
   32.3457  -21.5063   34.0143 C   0  0  0  0  0  0  0  0  0  0  0  0
   32.6001  -20.0513   34.3543 C   0  0  0  0  0  0  0  0  0  0  0  0
   38.1435  -13.4003   37.5422 C   0  0  0  0  0  0  0  0  0  0  0  0
   37.0736  -13.3529   36.6214 O   0  0  0  0  0  0  0  0  0  0  0  0
   37.9230  -18.1668   35.4661 N   0  0  0  0  0  0  0  0  0  0  0  0
   38.3541  -17.8684   34.5531 H   0  0  0  0  0  0  0  0  0  0  0  0
   38.8136  -18.7329   36.4373 C   0  0  0  0  0  0  0  0  0  0  0  0
   38.3355  -19.9761   37.1174 C   0  0  0  0  0  0  0  0  0  0  0  0
   39.4599  -20.6096   37.9281 C   0  0  0  0  0  0  0  0  0  0  0  0
   40.5043  -19.6353   38.1905 N   0  0  0  0  0  0  0  0  0  0  0  0
   41.1639  -19.1802   36.9933 C   0  0  0  0  0  0  0  0  0  0  0  0
   40.1615  -19.0485   35.8332 C   0  0  0  0  0  0  0  0  0  0  0  0
   41.3767  -20.0617   39.2222 C   0  0  0  0  0  0  0  0  0  0  0  0
   42.3247  -19.0427   39.7614 C   0  0  0  0  0  0  0  0  0  0  0  0
   40.6449  -20.6944   40.3944 C   0  0  0  0  0  0  0  0  0  0  0  0
   34.3199  -13.1368   36.9434 O   0  0  0  0  0  0  0  0  0  0  0  0
   33.7637  -12.0257   37.3149 C   0  0  0  0  0  0  0  0  0  0  0  0
   32.5078  -12.2950   38.1513 C   0  0  0  0  0  0  0  0  0  0  0  0
   31.3701  -11.3941   37.8016 C   0  0  0  0  0  0  0  0  0  0  0  0
   30.0992  -12.0381   37.6586 N   0  0  0  0  0  0  0  0  0  0  0  0
   29.6163  -12.6164   38.9049 C   0  0  0  0  0  0  0  0  0  0  0  0
   29.2083  -11.4537   39.7788 C   0  0  0  0  0  0  0  0  0  0  0  0
   28.9064  -10.3487   38.8018 C   0  0  0  0  0  0  0  0  0  0  0  0
   29.1082  -10.9891   37.4515 C   0  0  0  0  0  0  0  0  0  0  0  0
 19 20  1  0  0  0
 20  1  1  0  0  0
  1  2  2  0  0  0
  2  3  1  0  0  0
  3  4  2  0  0  0
  4 21  1  0  0  0
 21 23  1  0  0  0
 23 24  1  0  0  0
 24 25  1  0  0  0
 25 26  1  0  0  0
 26 27  1  0  0  0
 27 28  1  0  0  0
 26 29  1  0  0  0
 29 30  1  0  0  0
 29 31  1  0  0  0
  4  5  1  0  0  0
  5  6  2  0  0  0
  6  7  1  0  0  0
  7  8  2  0  0  0
  8  9  1  0  0  0
  9 10  2  0  0  0
 10 32  1  0  0  0
 32 33  1  0  0  0
 33 34  1  0  0  0
 34 35  1  0  0  0
 35 36  1  0  0  0
 36 37  1  0  0  0
 37 38  1  0  0  0
 38 39  1  0  0  0
 39 40  1  0  0  0
  6 11  1  0  0  0
 11 12  1  0  0  0
 12 13  1  0  0  0
 13 14  1  0  0  0
 14 15  1  0  0  0
 14 16  1  0  0  0
 14 17  1  0  0  0
 17 18  1  0  0  0
 10  1  1  0  0  0
 40 36  1  0  0  0
 18 11  1  0  0  0
  8  3  1  0  0  0
 28 23  1  0  0  0
 21 22  1  0  0  0
M  END
> <minimizedAffinity>
-7.73376

> <CNNscore>
0.4321928024

> <CNNaffinity>
6.9062347412

> <CNN_VS>
2.9848248959

> <CNNaffinity_variance>
0.0694903657

$$$$
[H]c1c(OC([H])([H])C([H])([H])C([H])([H])N2C([H])([H])C([H])([H])C([H])([H])C2([H])[H])c(OC([H])([H])[H])c([H])c2c(N([H])C3([H])C([H])([H])C([H])([H])N(C([H])(C([H])([H])[H])C([H])([H])[H])C([H])([H])C3([H])[H])nc(N3C([H])([H])C([H])([H])C(F)(F)C([H])([H])C3([H])[H])nc12


 40 44  0  0  0  0  0  0  0  0999 V2000
   35.7655  -14.9112   36.1581 C   0  0  0  0  0  0  0  0  0  0  0  0
   36.2455  -16.0275   35.5081 C   0  0  0  0  0  0  0  0  0  0  0  0
   35.5381  -17.1912   35.4074 C   0  0  0  0  0  0  0  0  0  0  0  0
   36.0246  -18.2941   34.7577 C   0  0  0  0  0  0  0  0  0  0  0  0
   35.2224  -19.3990   34.7236 N   0  0  0  0  0  0  0  0  0  0  0  0
   34.0030  -19.4387   35.2915 C   0  0  0  0  0  0  0  0  0  0  0  0
   33.5584  -18.3399   35.9192 N   0  0  0  0  0  0  0  0  0  0  0  0
   34.2794  -17.1958   36.0071 C   0  0  0  0  0  0  0  0  0  0  0  0
   33.7724  -16.0997   36.6623 C   0  0  0  0  0  0  0  0  0  0  0  0
   34.5109  -14.9128   36.7565 C   0  0  0  0  0  0  0  0  0  0  0  0
   33.1780  -20.5846   35.2496 N   0  0  0  0  0  0  0  0  0  0  0  0
   33.1961  -21.5518   36.3088 C   0  0  0  0  0  0  0  0  0  0  0  0
   31.8168  -22.2188   36.3915 C   0  0  0  0  0  0  0  0  0  0  0  0
   31.5187  -22.9387   35.1037 C   0  0  0  0  0  0  0  0  0  0  0  0
   32.0016  -24.2427   35.1248 F   0  0  0  0  0  0  0  0  0  0  0  0
   30.1492  -22.9762   34.9306 F   0  0  0  0  0  0  0  0  0  0  0  0
   32.1290  -22.2648   33.9151 C   0  0  0  0  0  0  0  0  0  0  0  0
   32.3057  -20.7737   34.1217 C   0  0  0  0  0  0  0  0  0  0  0  0
   37.5252  -13.6094   37.2233 C   0  0  0  0  0  0  0  0  0  0  0  0
   36.5656  -13.7834   36.2017 O   0  0  0  0  0  0  0  0  0  0  0  0
   37.2913  -18.3068   34.1423 N   0  0  0  0  0  0  0  0  0  0  0  0
   37.4276  -17.7554   33.2558 H   0  0  0  0  0  0  0  0  0  0  0  0
   38.4339  -19.0231   34.6301 C   0  0  0  0  0  0  0  0  0  0  0  0
   38.4000  -19.4025   36.0764 C   0  0  0  0  0  0  0  0  0  0  0  0
   39.5367  -20.3631   36.4052 C   0  0  0  0  0  0  0  0  0  0  0  0
   40.5725  -20.2863   35.3901 N   0  0  0  0  0  0  0  0  0  0  0  0
   40.1236  -20.7231   34.0929 C   0  0  0  0  0  0  0  0  0  0  0  0
   38.6674  -20.2919   33.8445 C   0  0  0  0  0  0  0  0  0  0  0  0
   41.7845  -20.8755   35.8273 C   0  0  0  0  0  0  0  0  0  0  0  0
   42.7600  -19.9741   36.5081 C   0  0  0  0  0  0  0  0  0  0  0  0
   41.5676  -22.0925   36.7116 C   0  0  0  0  0  0  0  0  0  0  0  0
   34.0420  -13.8886   37.3652 O   0  0  0  0  0  0  0  0  0  0  0  0
   33.5810  -12.8881   38.0496 C   0  0  0  0  0  0  0  0  0  0  0  0
   32.2813  -12.3568   37.4349 C   0  0  0  0  0  0  0  0  0  0  0  0
   32.4345  -11.0012   36.8289 C   0  0  0  0  0  0  0  0  0  0  0  0
   32.7341   -9.9474   37.7510 N   0  0  0  0  0  0  0  0  0  0  0  0
   33.9724   -9.2516   37.4296 C   0  0  0  0  0  0  0  0  0  0  0  0
   33.6851   -8.4279   36.1962 C   0  0  0  0  0  0  0  0  0  0  0  0
   32.1950   -8.2168   36.2351 C   0  0  0  0  0  0  0  0  0  0  0  0
   31.7641   -8.8845   37.5167 C   0  0  0  0  0  0  0  0  0  0  0  0
 19 20  1  0  0  0
 20  1  1  0  0  0
  1  2  2  0  0  0
  2  3  1  0  0  0
  3  4  2  0  0  0
  4 21  1  0  0  0
 21 23  1  0  0  0
 23 24  1  0  0  0
 24 25  1  0  0  0
 25 26  1  0  0  0
 26 27  1  0  0  0
 27 28  1  0  0  0
 26 29  1  0  0  0
 29 30  1  0  0  0
 29 31  1  0  0  0
  4  5  1  0  0  0
  5  6  2  0  0  0
  6  7  1  0  0  0
  7  8  2  0  0  0
  8  9  1  0  0  0
  9 10  2  0  0  0
 10 32  1  0  0  0
 32 33  1  0  0  0
 33 34  1  0  0  0
 34 35  1  0  0  0
 35 36  1  0  0  0
 36 37  1  0  0  0
 37 38  1  0  0  0
 38 39  1  0  0  0
 39 40  1  0  0  0
  6 11  1  0  0  0
 11 12  1  0  0  0
 12 13  1  0  0  0
 13 14  1  0  0  0
 14 15  1  0  0  0
 14 16  1  0  0  0
 14 17  1  0  0  0
 17 18  1  0  0  0
 10  1  1  0  0  0
 40 36  1  0  0  0
 18 11  1  0  0  0
  8  3  1  0  0  0
 28 23  1  0  0  0
 21 22  1  0  0  0
M  END
> <minimizedAffinity>
-5.72021

> <CNNscore>
0.3900307417

> <CNNaffinity>
6.7415208817

> <CNN_VS>
2.6294004917

> <CNNaffinity_variance>
0.0009526500

$$$$
[H]c1c(OC([H])([H])C([H])([H])C([H])([H])N2C([H])([H])C([H])([H])C([H])([H])C2([H])[H])c(OC([H])([H])[H])c([H])c2c(N([H])C3([H])C([H])([H])C([H])([H])N(C([H])(C([H])([H])[H])C([H])([H])[H])C([H])([H])C3([H])[H])nc(N3C([H])([H])C([H])([H])C(F)(F)C([H])([H])C3([H])[H])nc12


 40 44  0  0  0  0  0  0  0  0999 V2000
   40.0156  -19.2317   35.6946 C   0  0  0  0  0  0  0  0  0  0  0  0
   39.0604  -18.2902   36.0111 C   0  0  0  0  0  0  0  0  0  0  0  0
   37.7231  -18.4959   35.8255 C   0  0  0  0  0  0  0  0  0  0  0  0
   36.7825  -17.5534   36.1450 C   0  0  0  0  0  0  0  0  0  0  0  0
   35.4758  -17.8769   35.9139 N   0  0  0  0  0  0  0  0  0  0  0  0
   35.0925  -19.0588   35.3970 C   0  0  0  0  0  0  0  0  0  0  0  0
   36.0409  -19.9583   35.0963 N   0  0  0  0  0  0  0  0  0  0  0  0
   37.3630  -19.7311   35.2886 C   0  0  0  0  0  0  0  0  0  0  0  0
   38.2908  -20.6907   34.9627 C   0  0  0  0  0  0  0  0  0  0  0  0
   39.6593  -20.4641   35.1596 C   0  0  0  0  0  0  0  0  0  0  0  0
   33.7385  -19.3870   35.1634 N   0  0  0  0  0  0  0  0  0  0  0  0
   33.3314  -20.0430   33.9545 C   0  0  0  0  0  0  0  0  0  0  0  0
   32.0827  -20.8855   34.2466 C   0  0  0  0  0  0  0  0  0  0  0  0
   30.9578  -19.9932   34.6981 C   0  0  0  0  0  0  0  0  0  0  0  0
   30.2199  -19.5176   33.6195 F   0  0  0  0  0  0  0  0  0  0  0  0
   30.1219  -20.7246   35.5187 F   0  0  0  0  0  0  0  0  0  0  0  0
   31.4426  -18.7987   35.4580 C   0  0  0  0  0  0  0  0  0  0  0  0
   32.7592  -19.0558   36.1634 C   0  0  0  0  0  0  0  0  0  0  0  0
   41.7204  -18.0620   36.9797 C   0  0  0  0  0  0  0  0  0  0  0  0
   41.3441  -18.9199   35.9227 O   0  0  0  0  0  0  0  0  0  0  0  0
   37.1268  -16.3023   36.6922 N   0  0  0  0  0  0  0  0  0  0  0  0
   38.1348  -16.1166   36.9330 H   0  0  0  0  0  0  0  0  0  0  0  0
   36.2015  -15.2389   36.9562 C   0  0  0  0  0  0  0  0  0  0  0  0
   36.7841  -13.8624   37.0085 C   0  0  0  0  0  0  0  0  0  0  0  0
   35.6787  -12.8137   37.0438 C   0  0  0  0  0  0  0  0  0  0  0  0
   34.4269  -13.4134   37.4710 N   0  0  0  0  0  0  0  0  0  0  0  0
   33.9299  -14.3994   36.5458 C   0  0  0  0  0  0  0  0  0  0  0  0
   35.0874  -15.2101   35.9366 C   0  0  0  0  0  0  0  0  0  0  0  0
   33.4790  -12.4351   37.8604 C   0  0  0  0  0  0  0  0  0  0  0  0
   33.8726  -11.0081   37.6699 C   0  0  0  0  0  0  0  0  0  0  0  0
   32.1167  -12.6401   37.2186 C   0  0  0  0  0  0  0  0  0  0  0  0
   40.5275  -21.3558   34.8583 O   0  0  0  0  0  0  0  0  0  0  0  0
   41.4009  -22.2860   34.6266 C   0  0  0  0  0  0  0  0  0  0  0  0
   41.8977  -22.9090   35.9359 C   0  0  0  0  0  0  0  0  0  0  0  0
   42.7217  -21.9697   36.7526 C   0  0  0  0  0  0  0  0  0  0  0  0
   44.0562  -21.7544   36.2799 N   0  0  0  0  0  0  0  0  0  0  0  0
   44.8947  -21.0658   37.2512 C   0  0  0  0  0  0  0  0  0  0  0  0
   45.1782  -22.0659   38.3474 C   0  0  0  0  0  0  0  0  0  0  0  0
   45.0147  -23.4031   37.6752 C   0  0  0  0  0  0  0  0  0  0  0  0
   44.7116  -23.0561   36.2393 C   0  0  0  0  0  0  0  0  0  0  0  0
 19 20  1  0  0  0
 20  1  1  0  0  0
  1  2  2  0  0  0
  2  3  1  0  0  0
  3  4  2  0  0  0
  4 21  1  0  0  0
 21 23  1  0  0  0
 23 24  1  0  0  0
 24 25  1  0  0  0
 25 26  1  0  0  0
 26 27  1  0  0  0
 27 28  1  0  0  0
 26 29  1  0  0  0
 29 30  1  0  0  0
 29 31  1  0  0  0
  4  5  1  0  0  0
  5  6  2  0  0  0
  6  7  1  0  0  0
  7  8  2  0  0  0
  8  9  1  0  0  0
  9 10  2  0  0  0
 10 32  1  0  0  0
 32 33  1  0  0  0
 33 34  1  0  0  0
 34 35  1  0  0  0
 35 36  1  0  0  0
 36 37  1  0  0  0
 37 38  1  0  0  0
 38 39  1  0  0  0
 39 40  1  0  0  0
  6 11  1  0  0  0
 11 12  1  0  0  0
 12 13  1  0  0  0
 13 14  1  0  0  0
 14 15  1  0  0  0
 14 16  1  0  0  0
 14 17  1  0  0  0
 17 18  1  0  0  0
 10  1  1  0  0  0
 40 36  1  0  0  0
 18 11  1  0  0  0
  8  3  1  0  0  0
 28 23  1  0  0  0
 21 22  1  0  0  0
M  END
> <minimizedAffinity>
-6.17127

> <CNNscore>
0.3396270871

> <CNNaffinity>
6.4682250023

> <CNN_VS>
2.1967844963

> <CNNaffinity_variance>
0.0526211150

$$$$
[H]c1c(OC([H])([H])C([H])([H])C([H])([H])N2C([H])([H])C([H])([H])C([H])([H])C2([H])[H])c(OC([H])([H])[H])c([H])c2c(N([H])C3([H])C([H])([H])C([H])([H])N(C([H])(C([H])([H])[H])C([H])([H])[H])C([H])([H])C3([H])[H])nc(N3C([H])([H])C([H])([H])C(F)(F)C([H])([H])C3([H])[H])nc12


 40 44  0  0  0  0  0  0  0  0999 V2000
   40.4913  -19.4241   35.9323 C   0  0  0  0  0  0  0  0  0  0  0  0
   39.5279  -18.5024   36.2805 C   0  0  0  0  0  0  0  0  0  0  0  0
   38.1950  -18.6992   36.0576 C   0  0  0  0  0  0  0  0  0  0  0  0
   37.2461  -17.7767   36.4091 C   0  0  0  0  0  0  0  0  0  0  0  0
   35.9450  -18.0887   36.1349 N   0  0  0  0  0  0  0  0  0  0  0  0
   35.5746  -19.2412   35.5471 C   0  0  0  0  0  0  0  0  0  0  0  0
   36.5308  -20.1218   35.2167 N   0  0  0  0  0  0  0  0  0  0  0  0
   37.8483  -19.9039   35.4473 C   0  0  0  0  0  0  0  0  0  0  0  0
   38.7846  -20.8431   35.0882 C   0  0  0  0  0  0  0  0  0  0  0  0
   40.1485  -20.6260   35.3242 C   0  0  0  0  0  0  0  0  0  0  0  0
   34.2262  -19.5578   35.2691 N   0  0  0  0  0  0  0  0  0  0  0  0
   33.2663  -19.7092   36.3242 C   0  0  0  0  0  0  0  0  0  0  0  0
   31.8796  -19.3304   35.7878 C   0  0  0  0  0  0  0  0  0  0  0  0
   31.4943  -20.2572   34.6662 C   0  0  0  0  0  0  0  0  0  0  0  0
   30.8511  -21.3945   35.1427 F   0  0  0  0  0  0  0  0  0  0  0  0
   30.6359  -19.5851   33.8187 F   0  0  0  0  0  0  0  0  0  0  0  0
   32.6759  -20.7218   33.8742 C   0  0  0  0  0  0  0  0  0  0  0  0
   33.8186  -19.7263   33.9001 C   0  0  0  0  0  0  0  0  0  0  0  0
   42.4053  -17.9349   35.7210 C   0  0  0  0  0  0  0  0  0  0  0  0
   41.8143  -19.1236   36.2033 O   0  0  0  0  0  0  0  0  0  0  0  0
   37.5767  -16.5568   37.0303 N   0  0  0  0  0  0  0  0  0  0  0  0
   38.4485  -16.5097   37.6188 H   0  0  0  0  0  0  0  0  0  0  0  0
   36.8099  -15.3492   36.9284 C   0  0  0  0  0  0  0  0  0  0  0  0
   35.4430  -15.3889   37.5339 C   0  0  0  0  0  0  0  0  0  0  0  0
   34.8376  -13.9910   37.5825 C   0  0  0  0  0  0  0  0  0  0  0  0
   35.5191  -13.1126   36.6481 N   0  0  0  0  0  0  0  0  0  0  0  0
   36.9026  -12.8953   36.9859 C   0  0  0  0  0  0  0  0  0  0  0  0
   37.5360  -14.1795   37.5497 C   0  0  0  0  0  0  0  0  0  0  0  0
   34.7777  -11.9317   36.3973 C   0  0  0  0  0  0  0  0  0  0  0  0
   33.9313  -11.4222   37.5161 C   0  0  0  0  0  0  0  0  0  0  0  0
   35.6398  -10.7849   35.8958 C   0  0  0  0  0  0  0  0  0  0  0  0
   41.0244  -21.4990   34.9921 O   0  0  0  0  0  0  0  0  0  0  0  0
   41.8623  -22.4387   34.6812 C   0  0  0  0  0  0  0  0  0  0  0  0
   41.1246  -23.6912   34.1950 C   0  0  0  0  0  0  0  0  0  0  0  0
   41.7781  -24.3317   33.0156 C   0  0  0  0  0  0  0  0  0  0  0  0
   42.5306  -23.4484   32.1764 N   0  0  0  0  0  0  0  0  0  0  0  0
   43.9110  -23.8775   31.9997 C   0  0  0  0  0  0  0  0  0  0  0  0
   43.8633  -25.0918   31.1022 C   0  0  0  0  0  0  0  0  0  0  0  0
   42.5755  -24.9333   30.3387 C   0  0  0  0  0  0  0  0  0  0  0  0
   42.0256  -23.6137   30.8187 C   0  0  0  0  0  0  0  0  0  0  0  0
 19 20  1  0  0  0
 20  1  1  0  0  0
  1  2  2  0  0  0
  2  3  1  0  0  0
  3  4  2  0  0  0
  4 21  1  0  0  0
 21 23  1  0  0  0
 23 24  1  0  0  0
 24 25  1  0  0  0
 25 26  1  0  0  0
 26 27  1  0  0  0
 27 28  1  0  0  0
 26 29  1  0  0  0
 29 30  1  0  0  0
 29 31  1  0  0  0
  4  5  1  0  0  0
  5  6  2  0  0  0
  6  7  1  0  0  0
  7  8  2  0  0  0
  8  9  1  0  0  0
  9 10  2  0  0  0
 10 32  1  0  0  0
 32 33  1  0  0  0
 33 34  1  0  0  0
 34 35  1  0  0  0
 35 36  1  0  0  0
 36 37  1  0  0  0
 37 38  1  0  0  0
 38 39  1  0  0  0
 39 40  1  0  0  0
  6 11  1  0  0  0
 11 12  1  0  0  0
 12 13  1  0  0  0
 13 14  1  0  0  0
 14 15  1  0  0  0
 14 16  1  0  0  0
 14 17  1  0  0  0
 17 18  1  0  0  0
 10  1  1  0  0  0
 40 36  1  0  0  0
 18 11  1  0  0  0
  8  3  1  0  0  0
 28 23  1  0  0  0
 21 22  1  0  0  0
M  END
> <minimizedAffinity>
-6.20922

> <CNNscore>
0.2809477746

> <CNNaffinity>
6.3737649918

> <CNN_VS>
1.7906950712

> <CNNaffinity_variance>
0.0664421469

$$$$
[H]c1c(OC([H])([H])C([H])([H])C([H])([H])N2C([H])([H])C([H])([H])C([H])([H])C2([H])[H])c(OC([H])([H])[H])c([H])c2c(N([H])C3([H])C([H])([H])C([H])([H])N(C([H])(C([H])([H])[H])C([H])([H])[H])C([H])([H])C3([H])[H])nc(N3C([H])([H])C([H])([H])C(F)(F)C([H])([H])C3([H])[H])nc12


 40 44  0  0  0  0  0  0  0  0999 V2000
   35.3622  -20.8224   40.3765 C   0  0  0  0  0  0  0  0  0  0  0  0
   35.0953  -20.1661   39.1945 C   0  0  0  0  0  0  0  0  0  0  0  0
   35.9984  -20.0748   38.1741 C   0  0  0  0  0  0  0  0  0  0  0  0
   35.7217  -19.4211   37.0031 C   0  0  0  0  0  0  0  0  0  0  0  0
   36.7062  -19.3989   36.0567 N   0  0  0  0  0  0  0  0  0  0  0  0
   37.9062  -19.9823   36.2318 C   0  0  0  0  0  0  0  0  0  0  0  0
   38.1423  -20.6141   37.3912 N   0  0  0  0  0  0  0  0  0  0  0  0
   37.2302  -20.6909   38.3905 C   0  0  0  0  0  0  0  0  0  0  0  0
   37.5271  -21.3529   39.5573 C   0  0  0  0  0  0  0  0  0  0  0  0
   36.5893  -21.4378   40.5947 C   0  0  0  0  0  0  0  0  0  0  0  0
   38.9185  -19.9573   35.2469 N   0  0  0  0  0  0  0  0  0  0  0  0
   38.6423  -20.3260   33.8885 C   0  0  0  0  0  0  0  0  0  0  0  0
   39.6009  -19.5625   32.9653 C   0  0  0  0  0  0  0  0  0  0  0  0
   41.0231  -19.9453   33.2755 C   0  0  0  0  0  0  0  0  0  0  0  0
   41.4221  -21.0598   32.5454 F   0  0  0  0  0  0  0  0  0  0  0  0
   41.8432  -18.8838   32.9471 F   0  0  0  0  0  0  0  0  0  0  0  0
   41.2268  -20.2728   34.7213 C   0  0  0  0  0  0  0  0  0  0  0  0
   40.2459  -19.5504   35.6230 C   0  0  0  0  0  0  0  0  0  0  0  0
   33.3912  -21.8672   41.3507 C   0  0  0  0  0  0  0  0  0  0  0  0
   34.3755  -20.8543   41.3457 O   0  0  0  0  0  0  0  0  0  0  0  0
   34.4819  -18.7970   36.7647 N   0  0  0  0  0  0  0  0  0  0  0  0
   34.4142  -17.7516   36.8701 H   0  0  0  0  0  0  0  0  0  0  0  0
   33.2790  -19.4791   36.3846 C   0  0  0  0  0  0  0  0  0  0  0  0
   32.3251  -18.7001   35.5362 C   0  0  0  0  0  0  0  0  0  0  0  0
   31.2234  -19.6057   34.9987 C   0  0  0  0  0  0  0  0  0  0  0  0
   31.1327  -20.8175   35.7940 N   0  0  0  0  0  0  0  0  0  0  0  0
   32.3154  -21.6358   35.7109 C   0  0  0  0  0  0  0  0  0  0  0  0
   33.5810  -20.7626   35.6477 C   0  0  0  0  0  0  0  0  0  0  0  0
   29.9168  -21.5082   35.5664 C   0  0  0  0  0  0  0  0  0  0  0  0
   29.9944  -22.9974   35.5030 C   0  0  0  0  0  0  0  0  0  0  0  0
   28.8266  -21.1327   36.5566 C   0  0  0  0  0  0  0  0  0  0  0  0
   36.8612  -22.0545   41.6834 O   0  0  0  0  0  0  0  0  0  0  0  0
   37.1400  -22.6095   42.8219 C   0  0  0  0  0  0  0  0  0  0  0  0
   36.7675  -24.0962   42.8120 C   0  0  0  0  0  0  0  0  0  0  0  0
   37.2250  -24.8037   41.5798 C   0  0  0  0  0  0  0  0  0  0  0  0
   36.3290  -25.8010   41.0766 N   0  0  0  0  0  0  0  0  0  0  0  0
   35.0417  -25.2516   40.6743 C   0  0  0  0  0  0  0  0  0  0  0  0
   35.2927  -24.4784   39.4010 C   0  0  0  0  0  0  0  0  0  0  0  0
   36.5313  -25.1119   38.8253 C   0  0  0  0  0  0  0  0  0  0  0  0
   36.8491  -26.2314   39.7844 C   0  0  0  0  0  0  0  0  0  0  0  0
 19 20  1  0  0  0
 20  1  1  0  0  0
  1  2  2  0  0  0
  2  3  1  0  0  0
  3  4  2  0  0  0
  4 21  1  0  0  0
 21 23  1  0  0  0
 23 24  1  0  0  0
 24 25  1  0  0  0
 25 26  1  0  0  0
 26 27  1  0  0  0
 27 28  1  0  0  0
 26 29  1  0  0  0
 29 30  1  0  0  0
 29 31  1  0  0  0
  4  5  1  0  0  0
  5  6  2  0  0  0
  6  7  1  0  0  0
  7  8  2  0  0  0
  8  9  1  0  0  0
  9 10  2  0  0  0
 10 32  1  0  0  0
 32 33  1  0  0  0
 33 34  1  0  0  0
 34 35  1  0  0  0
 35 36  1  0  0  0
 36 37  1  0  0  0
 37 38  1  0  0  0
 38 39  1  0  0  0
 39 40  1  0  0  0
  6 11  1  0  0  0
 11 12  1  0  0  0
 12 13  1  0  0  0
 13 14  1  0  0  0
 14 15  1  0  0  0
 14 16  1  0  0  0
 14 17  1  0  0  0
 17 18  1  0  0  0
 10  1  1  0  0  0
 40 36  1  0  0  0
 18 11  1  0  0  0
  8  3  1  0  0  0
 28 23  1  0  0  0
 21 22  1  0  0  0
M  END
> <minimizedAffinity>
-4.76686

> <CNNscore>
0.2282689959

> <CNNaffinity>
5.7354021072

> <CNN_VS>
1.3092144728

> <CNNaffinity_variance>
0.1141345054

$$$$
[H]c1c(OC([H])([H])C([H])([H])C([H])([H])N2C([H])([H])C([H])([H])C([H])([H])C2([H])[H])c(OC([H])([H])[H])c([H])c2c(N([H])C3([H])C([H])([H])C([H])([H])N(C([H])(C([H])([H])[H])C([H])([H])[H])C([H])([H])C3([H])[H])nc(N3C([H])([H])C([H])([H])C(F)(F)C([H])([H])C3([H])[H])nc12


 40 44  0  0  0  0  0  0  0  0999 V2000
   37.4201  -19.2540   35.6637 C   0  0  0  0  0  0  0  0  0  0  0  0
   36.1614  -18.8535   35.2712 C   0  0  0  0  0  0  0  0  0  0  0  0
   35.6101  -17.6610   35.6444 C   0  0  0  0  0  0  0  0  0  0  0  0
   34.3586  -17.2727   35.2471 C   0  0  0  0  0  0  0  0  0  0  0  0
   33.9174  -16.0566   35.6851 N   0  0  0  0  0  0  0  0  0  0  0  0
   34.6518  -15.2493   36.4724 C   0  0  0  0  0  0  0  0  0  0  0  0
   35.8734  -15.6618   36.8419 N   0  0  0  0  0  0  0  0  0  0  0  0
   36.3994  -16.8508   36.4595 C   0  0  0  0  0  0  0  0  0  0  0  0
   37.6578  -17.2211   36.8679 C   0  0  0  0  0  0  0  0  0  0  0  0
   38.2093  -18.4480   36.4760 C   0  0  0  0  0  0  0  0  0  0  0  0
   34.1895  -13.9914   36.9192 N   0  0  0  0  0  0  0  0  0  0  0  0
   32.8408  -13.8149   37.3746 C   0  0  0  0  0  0  0  0  0  0  0  0
   32.8138  -12.6831   38.4102 C   0  0  0  0  0  0  0  0  0  0  0  0
   33.2663  -11.3964   37.7736 C   0  0  0  0  0  0  0  0  0  0  0  0
   32.2027  -10.7116   37.1959 F   0  0  0  0  0  0  0  0  0  0  0  0
   33.8282  -10.5989   38.7510 F   0  0  0  0  0  0  0  0  0  0  0  0
   34.2827  -11.6152   36.6974 C   0  0  0  0  0  0  0  0  0  0  0  0
   35.0965  -12.8750   36.9162 C   0  0  0  0  0  0  0  0  0  0  0  0
   38.5517  -20.6142   33.9919 C   0  0  0  0  0  0  0  0  0  0  0  0
   37.8822  -20.4833   35.2286 O   0  0  0  0  0  0  0  0  0  0  0  0
   33.5489  -18.0754   34.4204 N   0  0  0  0  0  0  0  0  0  0  0  0
   33.5486  -17.8933   33.3834 H   0  0  0  0  0  0  0  0  0  0  0  0
   32.7063  -19.1405   34.8813 C   0  0  0  0  0  0  0  0  0  0  0  0
   31.2474  -18.8259   34.9775 C   0  0  0  0  0  0  0  0  0  0  0  0
   30.4414  -20.0941   35.2326 C   0  0  0  0  0  0  0  0  0  0  0  0
   31.3002  -21.1417   35.7559 N   0  0  0  0  0  0  0  0  0  0  0  0
   32.3093  -21.5637   34.8184 C   0  0  0  0  0  0  0  0  0  0  0  0
   32.8386  -20.3666   34.0091 C   0  0  0  0  0  0  0  0  0  0  0  0
   30.5528  -22.1959   36.3366 C   0  0  0  0  0  0  0  0  0  0  0  0
   29.3721  -21.8044   37.1615 C   0  0  0  0  0  0  0  0  0  0  0  0
   30.0981  -23.2308   35.3206 C   0  0  0  0  0  0  0  0  0  0  0  0
   39.3820  -18.7969   36.8534 O   0  0  0  0  0  0  0  0  0  0  0  0
   40.5972  -19.0839   37.2038 C   0  0  0  0  0  0  0  0  0  0  0  0
   41.4103  -19.5810   36.0034 C   0  0  0  0  0  0  0  0  0  0  0  0
   42.7139  -18.8706   35.8477 C   0  0  0  0  0  0  0  0  0  0  0  0
   42.6641  -17.4508   36.0276 N   0  0  0  0  0  0  0  0  0  0  0  0
   43.6827  -16.9624   36.9466 C   0  0  0  0  0  0  0  0  0  0  0  0
   44.9994  -17.0737   36.2142 C   0  0  0  0  0  0  0  0  0  0  0  0
   44.6141  -17.0354   34.7593 C   0  0  0  0  0  0  0  0  0  0  0  0
   43.1183  -16.8449   34.7818 C   0  0  0  0  0  0  0  0  0  0  0  0
 19 20  1  0  0  0
 20  1  1  0  0  0
  1  2  2  0  0  0
  2  3  1  0  0  0
  3  4  2  0  0  0
  4 21  1  0  0  0
 21 23  1  0  0  0
 23 24  1  0  0  0
 24 25  1  0  0  0
 25 26  1  0  0  0
 26 27  1  0  0  0
 27 28  1  0  0  0
 26 29  1  0  0  0
 29 30  1  0  0  0
 29 31  1  0  0  0
  4  5  1  0  0  0
  5  6  2  0  0  0
  6  7  1  0  0  0
  7  8  2  0  0  0
  8  9  1  0  0  0
  9 10  2  0  0  0
 10 32  1  0  0  0
 32 33  1  0  0  0
 33 34  1  0  0  0
 34 35  1  0  0  0
 35 36  1  0  0  0
 36 37  1  0  0  0
 37 38  1  0  0  0
 38 39  1  0  0  0
 39 40  1  0  0  0
  6 11  1  0  0  0
 11 12  1  0  0  0
 12 13  1  0  0  0
 13 14  1  0  0  0
 14 15  1  0  0  0
 14 16  1  0  0  0
 14 17  1  0  0  0
 17 18  1  0  0  0
 10  1  1  0  0  0
 40 36  1  0  0  0
 18 11  1  0  0  0
  8  3  1  0  0  0
 28 23  1  0  0  0
 21 22  1  0  0  0
M  END
> <minimizedAffinity>
-7.10803

> <CNNscore>
0.2060813159

> <CNNaffinity>
6.4738416672

> <CNN_VS>
1.3341377974

> <CNNaffinity_variance>
0.2143200189

$$$$
[H]c1c(OC([H])([H])C([H])([H])C([H])([H])N2C([H])([H])C([H])([H])C([H])([H])C2([H])[H])c(OC([H])([H])[H])c([H])c2c(N([H])C3([H])C([H])([H])C([H])([H])N(C([H])(C([H])([H])[H])C([H])([H])[H])C([H])([H])C3([H])[H])nc(N3C([H])([H])C([H])([H])C(F)(F)C([H])([H])C3([H])[H])nc12


 40 44  0  0  0  0  0  0  0  0999 V2000
   35.9522  -15.3383   36.3050 C   0  0  0  0  0  0  0  0  0  0  0  0
   36.5049  -16.5838   36.0994 C   0  0  0  0  0  0  0  0  0  0  0  0
   35.7547  -17.7149   35.9493 C   0  0  0  0  0  0  0  0  0  0  0  0
   36.3148  -18.9475   35.7440 C   0  0  0  0  0  0  0  0  0  0  0  0
   35.4595  -20.0035   35.6076 N   0  0  0  0  0  0  0  0  0  0  0  0
   34.1210  -19.8764   35.6664 C   0  0  0  0  0  0  0  0  0  0  0  0
   33.6071  -18.6541   35.8684 N   0  0  0  0  0  0  0  0  0  0  0  0
   34.3724  -17.5454   36.0156 C   0  0  0  0  0  0  0  0  0  0  0  0
   33.7905  -16.3175   36.2193 C   0  0  0  0  0  0  0  0  0  0  0  0
   34.5745  -15.1663   36.3712 C   0  0  0  0  0  0  0  0  0  0  0  0
   33.2427  -20.9733   35.5217 N   0  0  0  0  0  0  0  0  0  0  0  0
   32.2136  -20.9738   34.5224 C   0  0  0  0  0  0  0  0  0  0  0  0
   31.9304  -22.4233   34.1064 C   0  0  0  0  0  0  0  0  0  0  0  0
   31.4343  -23.2077   35.2914 C   0  0  0  0  0  0  0  0  0  0  0  0
   30.0525  -23.1167   35.4209 F   0  0  0  0  0  0  0  0  0  0  0  0
   31.7760  -24.5337   35.1121 F   0  0  0  0  0  0  0  0  0  0  0  0
   32.0272  -22.7350   36.5814 C   0  0  0  0  0  0  0  0  0  0  0  0
   33.3936  -22.1060   36.3951 C   0  0  0  0  0  0  0  0  0  0  0  0
   37.5780  -14.0862   37.6144 C   0  0  0  0  0  0  0  0  0  0  0  0
   36.8048  -14.2578   36.4451 O   0  0  0  0  0  0  0  0  0  0  0  0
   37.7083  -19.1375   35.6696 N   0  0  0  0  0  0  0  0  0  0  0  0
   38.3088  -18.3428   35.3286 H   0  0  0  0  0  0  0  0  0  0  0  0
   38.3921  -20.3471   36.0246 C   0  0  0  0  0  0  0  0  0  0  0  0
   39.7453  -20.5364   35.4166 C   0  0  0  0  0  0  0  0  0  0  0  0
   40.4613  -21.7181   36.0600 C   0  0  0  0  0  0  0  0  0  0  0  0
   39.5057  -22.5871   36.7239 N   0  0  0  0  0  0  0  0  0  0  0  0
   38.8396  -21.9501   37.8311 C   0  0  0  0  0  0  0  0  0  0  0  0
   38.5576  -20.4694   37.5210 C   0  0  0  0  0  0  0  0  0  0  0  0
   40.0622  -23.8564   37.0178 C   0  0  0  0  0  0  0  0  0  0  0  0
   41.5519  -23.9479   37.0300 C   0  0  0  0  0  0  0  0  0  0  0  0
   39.5410  -24.4462   38.3180 C   0  0  0  0  0  0  0  0  0  0  0  0
   34.0365  -14.0198   36.5602 O   0  0  0  0  0  0  0  0  0  0  0  0
   33.5633  -12.8270   36.7474 C   0  0  0  0  0  0  0  0  0  0  0  0
   33.1115  -12.6390   38.2000 C   0  0  0  0  0  0  0  0  0  0  0  0
   31.6666  -12.9524   38.4063 C   0  0  0  0  0  0  0  0  0  0  0  0
   30.9881  -12.1216   39.3549 N   0  0  0  0  0  0  0  0  0  0  0  0
   29.5967  -11.8796   38.9996 C   0  0  0  0  0  0  0  0  0  0  0  0
   28.8674  -13.1802   39.2424 C   0  0  0  0  0  0  0  0  0  0  0  0
   29.7119  -13.8883   40.2681 C   0  0  0  0  0  0  0  0  0  0  0  0
   30.8185  -12.9092   40.5700 C   0  0  0  0  0  0  0  0  0  0  0  0
 19 20  1  0  0  0
 20  1  1  0  0  0
  1  2  2  0  0  0
  2  3  1  0  0  0
  3  4  2  0  0  0
  4 21  1  0  0  0
 21 23  1  0  0  0
 23 24  1  0  0  0
 24 25  1  0  0  0
 25 26  1  0  0  0
 26 27  1  0  0  0
 27 28  1  0  0  0
 26 29  1  0  0  0
 29 30  1  0  0  0
 29 31  1  0  0  0
  4  5  1  0  0  0
  5  6  2  0  0  0
  6  7  1  0  0  0
  7  8  2  0  0  0
  8  9  1  0  0  0
  9 10  2  0  0  0
 10 32  1  0  0  0
 32 33  1  0  0  0
 33 34  1  0  0  0
 34 35  1  0  0  0
 35 36  1  0  0  0
 36 37  1  0  0  0
 37 38  1  0  0  0
 38 39  1  0  0  0
 39 40  1  0  0  0
  6 11  1  0  0  0
 11 12  1  0  0  0
 12 13  1  0  0  0
 13 14  1  0  0  0
 14 15  1  0  0  0
 14 16  1  0  0  0
 14 17  1  0  0  0
 17 18  1  0  0  0
 10  1  1  0  0  0
 40 36  1  0  0  0
 18 11  1  0  0  0
  8  3  1  0  0  0
 28 23  1  0  0  0
 21 22  1  0  0  0
M  END
> <minimizedAffinity>
-5.82876

> <CNNscore>
0.1895378828

> <CNNaffinity>
6.2582941055

> <CNN_VS>
1.1861838102

> <CNNaffinity_variance>
0.1908442229

$$$$
[H]c1c(-c2nc3c([H])c(OC([H])([H])C([H])([H])C([H])([H])N4C([H])([H])C([H])([H])C([H])([H])C4([H])[H])c(OC([H])([H])[H])c([H])c3c(N([H])C3([H])C([H])([H])C4([H])N(C([H])([H])[H])C([H])(C([H])([H])C4([H])[H])C3([H])[H])c2[H])oc(C([H])([H])[H])c1[H]


 38 43  0  0  0  0  0  0  0  0999 V2000
   36.1530  -13.8998   36.6360 C   0  0  0  0  0  0  0  0  0  0  0  0
   36.6104  -15.1524   36.2234 C   0  0  0  0  0  0  0  0  0  0  0  0
   35.7296  -16.1374   35.9204 C   0  0  0  0  0  0  0  0  0  0  0  0
   36.1192  -17.3937   35.5083 C   0  0  0  0  0  0  0  0  0  0  0  0
   35.1185  -18.3009   35.2326 C   0  0  0  0  0  0  0  0  0  0  0  0
   33.7759  -17.9817   35.3582 C   0  0  0  0  0  0  0  0  0  0  0  0
   33.4290  -16.7674   35.7560 N   0  0  0  0  0  0  0  0  0  0  0  0
   34.3670  -15.8465   36.0375 C   0  0  0  0  0  0  0  0  0  0  0  0
   33.9151  -14.6159   36.4429 C   0  0  0  0  0  0  0  0  0  0  0  0
   34.8123  -13.6199   36.7497 C   0  0  0  0  0  0  0  0  0  0  0  0
   32.7268  -18.9580   35.0644 C   0  0  0  0  0  0  0  0  0  0  0  0
   32.7722  -19.9344   34.0916 C   0  0  0  0  0  0  0  0  0  0  0  0
   31.5766  -20.6133   34.1774 C   0  0  0  0  0  0  0  0  0  0  0  0
   30.8502  -20.0289   35.1937 C   0  0  0  0  0  0  0  0  0  0  0  0
   29.4758  -20.4323   35.6574 C   0  0  0  0  0  0  0  0  0  0  0  0
   31.5769  -19.0591   35.6805 O   0  0  0  0  0  0  0  0  0  0  0  0
   38.2553  -13.2367   37.5962 C   0  0  0  0  0  0  0  0  0  0  0  0
   37.0548  -12.8873   36.9477 O   0  0  0  0  0  0  0  0  0  0  0  0
   37.4824  -17.7453   35.4009 N   0  0  0  0  0  0  0  0  0  0  0  0
   38.2342  -17.0219   35.3808 H   0  0  0  0  0  0  0  0  0  0  0  0
   37.8537  -19.1715   35.3196 C   0  0  0  0  0  0  0  0  0  0  0  0
   37.9691  -19.5327   33.8828 C   0  0  0  0  0  0  0  0  0  0  0  0
   39.3908  -19.8333   33.4547 C   0  0  0  0  0  0  0  0  0  0  0  0
   40.1949  -18.5663   33.6475 C   0  0  0  0  0  0  0  0  0  0  0  0
   41.0338  -18.7949   34.9125 C   0  0  0  0  0  0  0  0  0  0  0  0
   40.2520  -19.9656   35.5300 C   0  0  0  0  0  0  0  0  0  0  0  0
   39.0419  -19.4020   36.1691 C   0  0  0  0  0  0  0  0  0  0  0  0
   40.0427  -20.7548   34.3476 N   0  0  0  0  0  0  0  0  0  0  0  0
   39.3049  -21.9624   34.5800 C   0  0  0  0  0  0  0  0  0  0  0  0
   34.3798  -12.3492   37.1684 O   0  0  0  0  0  0  0  0  0  0  0  0
   33.3784  -12.2808   38.1424 C   0  0  0  0  0  0  0  0  0  0  0  0
   32.2079  -11.4953   37.5902 C   0  0  0  0  0  0  0  0  0  0  0  0
   30.9151  -12.2913   37.7861 C   0  0  0  0  0  0  0  0  0  0  0  0
   29.7731  -11.4306   37.5739 N   0  0  0  0  0  0  0  0  0  0  0  0
   29.9734  -10.0735   37.9708 C   0  0  0  0  0  0  0  0  0  0  0  0
   28.8914   -9.6697   38.9212 C   0  0  0  0  0  0  0  0  0  0  0  0
   27.8249  -10.7180   38.7067 C   0  0  0  0  0  0  0  0  0  0  0  0
   28.6439  -11.9356   38.3307 C   0  0  0  0  0  0  0  0  0  0  0  0
 17 18  1  0  0  0
 18  1  1  0  0  0
  1  2  2  0  0  0
  2  3  1  0  0  0
  3  4  2  0  0  0
  4 19  1  0  0  0
 19 21  1  0  0  0
 21 22  1  0  0  0
 22 23  1  0  0  0
 23 24  1  0  0  0
 24 25  1  0  0  0
 25 26  1  0  0  0
 26 27  1  0  0  0
 26 28  1  0  0  0
 28 29  1  0  0  0
  4  5  1  0  0  0
  5  6  2  0  0  0
  6  7  1  0  0  0
  7  8  2  0  0  0
  8  9  1  0  0  0
  9 10  2  0  0  0
 10 30  1  0  0  0
 30 31  1  0  0  0
 31 32  1  0  0  0
 32 33  1  0  0  0
 33 34  1  0  0  0
 34 35  1  0  0  0
 35 36  1  0  0  0
 36 37  1  0  0  0
 37 38  1  0  0  0
  6 11  1  0  0  0
 11 12  2  0  0  0
 12 13  1  0  0  0
 13 14  2  0  0  0
 14 15  1  0  0  0
 14 16  1  0  0  0
 10  1  1  0  0  0
 38 34  1  0  0  0
 16 11  1  0  0  0
  8  3  1  0  0  0
 27 21  1  0  0  0
 28 23  1  0  0  0
 19 20  1  0  0  0
M  END
> <minimizedAffinity>
-9.26636

> <CNNscore>
0.8441569805

> <CNNaffinity>
7.5395545959

> <CNN_VS>
6.3645677567

> <CNNaffinity_variance>
0.0586465709

$$$$
[H]c1c(-c2nc3c([H])c(OC([H])([H])C([H])([H])C([H])([H])N4C([H])([H])C([H])([H])C([H])([H])C4([H])[H])c(OC([H])([H])[H])c([H])c3c(N([H])C3([H])C([H])([H])C4([H])N(C([H])([H])[H])C([H])(C([H])([H])C4([H])[H])C3([H])[H])c2[H])oc(C([H])([H])[H])c1[H]


 38 43  0  0  0  0  0  0  0  0999 V2000
   36.1707  -14.4068   36.6560 C   0  0  0  0  0  0  0  0  0  0  0  0
   36.8103  -15.6458   36.5911 C   0  0  0  0  0  0  0  0  0  0  0  0
   36.1127  -16.7601   36.2601 C   0  0  0  0  0  0  0  0  0  0  0  0
   36.6872  -18.0105   36.1799 C   0  0  0  0  0  0  0  0  0  0  0  0
   35.8614  -19.0582   35.8324 C   0  0  0  0  0  0  0  0  0  0  0  0
   34.5121  -18.8810   35.5715 C   0  0  0  0  0  0  0  0  0  0  0  0
   33.9855  -17.6691   35.6558 N   0  0  0  0  0  0  0  0  0  0  0  0
   34.7483  -16.6143   35.9912 C   0  0  0  0  0  0  0  0  0  0  0  0
   34.1175  -15.3973   36.0544 C   0  0  0  0  0  0  0  0  0  0  0  0
   34.8291  -14.2697   36.3910 C   0  0  0  0  0  0  0  0  0  0  0  0
   33.6493  -20.0048   35.2071 C   0  0  0  0  0  0  0  0  0  0  0  0
   32.9247  -20.1304   34.0405 C   0  0  0  0  0  0  0  0  0  0  0  0
   32.2667  -21.3375   34.1289 C   0  0  0  0  0  0  0  0  0  0  0  0
   32.6124  -21.9002   35.3397 C   0  0  0  0  0  0  0  0  0  0  0  0
   32.1383  -23.2234   35.8790 C   0  0  0  0  0  0  0  0  0  0  0  0
   33.4290  -21.0713   35.9325 O   0  0  0  0  0  0  0  0  0  0  0  0
   38.1226  -13.4142   37.6488 C   0  0  0  0  0  0  0  0  0  0  0  0
   36.8842  -13.2618   36.9955 O   0  0  0  0  0  0  0  0  0  0  0  0
   38.0541  -18.2145   36.4688 N   0  0  0  0  0  0  0  0  0  0  0  0
   38.6234  -17.4913   36.9606 H   0  0  0  0  0  0  0  0  0  0  0  0
   38.6927  -19.4838   36.0695 C   0  0  0  0  0  0  0  0  0  0  0  0
   39.7174  -19.1756   35.0383 C   0  0  0  0  0  0  0  0  0  0  0  0
   41.1361  -19.3950   35.5217 C   0  0  0  0  0  0  0  0  0  0  0  0
   41.3735  -18.4352   36.6669 C   0  0  0  0  0  0  0  0  0  0  0  0
   41.3145  -19.2873   37.9424 C   0  0  0  0  0  0  0  0  0  0  0  0
   40.5897  -20.5252   37.3898 C   0  0  0  0  0  0  0  0  0  0  0  0
   39.1524  -20.1874   37.2861 C   0  0  0  0  0  0  0  0  0  0  0  0
   41.3022  -20.6784   36.1515 N   0  0  0  0  0  0  0  0  0  0  0  0
   40.8494  -21.7818   35.3551 C   0  0  0  0  0  0  0  0  0  0  0  0
   34.2105  -13.0092   36.4646 O   0  0  0  0  0  0  0  0  0  0  0  0
   32.8128  -12.9587   36.4588 C   0  0  0  0  0  0  0  0  0  0  0  0
   32.3586  -11.8043   37.3266 C   0  0  0  0  0  0  0  0  0  0  0  0
   33.5789  -11.0823   37.9035 C   0  0  0  0  0  0  0  0  0  0  0  0
   33.3869   -9.6519   37.8190 N   0  0  0  0  0  0  0  0  0  0  0  0
   32.0566   -9.2523   37.4872 C   0  0  0  0  0  0  0  0  0  0  0  0
   32.0922   -8.3523   36.2931 C   0  0  0  0  0  0  0  0  0  0  0  0
   33.5352   -7.9099   36.2284 C   0  0  0  0  0  0  0  0  0  0  0  0
   34.2637   -9.1091   36.7993 C   0  0  0  0  0  0  0  0  0  0  0  0
 17 18  1  0  0  0
 18  1  1  0  0  0
  1  2  2  0  0  0
  2  3  1  0  0  0
  3  4  2  0  0  0
  4 19  1  0  0  0
 19 21  1  0  0  0
 21 22  1  0  0  0
 22 23  1  0  0  0
 23 24  1  0  0  0
 24 25  1  0  0  0
 25 26  1  0  0  0
 26 27  1  0  0  0
 26 28  1  0  0  0
 28 29  1  0  0  0
  4  5  1  0  0  0
  5  6  2  0  0  0
  6  7  1  0  0  0
  7  8  2  0  0  0
  8  9  1  0  0  0
  9 10  2  0  0  0
 10 30  1  0  0  0
 30 31  1  0  0  0
 31 32  1  0  0  0
 32 33  1  0  0  0
 33 34  1  0  0  0
 34 35  1  0  0  0
 35 36  1  0  0  0
 36 37  1  0  0  0
 37 38  1  0  0  0
  6 11  1  0  0  0
 11 12  2  0  0  0
 12 13  1  0  0  0
 13 14  2  0  0  0
 14 15  1  0  0  0
 14 16  1  0  0  0
 10  1  1  0  0  0
 38 34  1  0  0  0
 16 11  1  0  0  0
  8  3  1  0  0  0
 27 21  1  0  0  0
 28 23  1  0  0  0
 19 20  1  0  0  0
M  END
> <minimizedAffinity>
-8.53431

> <CNNscore>
0.4977026880

> <CNNaffinity>
7.0141854286

> <CNN_VS>
3.4909789562

> <CNNaffinity_variance>
0.0181823373

$$$$
[H]c1c(-c2nc3c([H])c(OC([H])([H])C([H])([H])C([H])([H])N4C([H])([H])C([H])([H])C([H])([H])C4([H])[H])c(OC([H])([H])[H])c([H])c3c(N([H])C3([H])C([H])([H])C4([H])N(C([H])([H])[H])C([H])(C([H])([H])C4([H])[H])C3([H])[H])c2[H])oc(C([H])([H])[H])c1[H]


 38 43  0  0  0  0  0  0  0  0999 V2000
   36.1361  -14.6499   36.1729 C   0  0  0  0  0  0  0  0  0  0  0  0
   36.5448  -15.9638   35.9380 C   0  0  0  0  0  0  0  0  0  0  0  0
   35.6265  -16.9455   35.7617 C   0  0  0  0  0  0  0  0  0  0  0  0
   35.9672  -18.2603   35.5272 C   0  0  0  0  0  0  0  0  0  0  0  0
   34.9323  -19.1565   35.3661 C   0  0  0  0  0  0  0  0  0  0  0  0
   33.6030  -18.7709   35.4336 C   0  0  0  0  0  0  0  0  0  0  0  0
   33.3033  -17.5013   35.6602 N   0  0  0  0  0  0  0  0  0  0  0  0
   34.2761  -16.5882   35.8244 C   0  0  0  0  0  0  0  0  0  0  0  0
   33.8721  -15.2972   36.0552 C   0  0  0  0  0  0  0  0  0  0  0  0
   34.8072  -14.3048   36.2338 C   0  0  0  0  0  0  0  0  0  0  0  0
   32.5169  -19.7360   35.2636 C   0  0  0  0  0  0  0  0  0  0  0  0
   32.5620  -20.8879   34.5066 C   0  0  0  0  0  0  0  0  0  0  0  0
   31.3250  -21.4795   34.6393 C   0  0  0  0  0  0  0  0  0  0  0  0
   30.5753  -20.6708   35.4675 C   0  0  0  0  0  0  0  0  0  0  0  0
   29.1540  -20.9090   35.9031 C   0  0  0  0  0  0  0  0  0  0  0  0
   31.3282  -19.6585   35.8049 O   0  0  0  0  0  0  0  0  0  0  0  0
   37.8197  -13.6257   37.5504 C   0  0  0  0  0  0  0  0  0  0  0  0
   37.0764  -13.6407   36.3542 O   0  0  0  0  0  0  0  0  0  0  0  0
   37.3158  -18.6764   35.4823 N   0  0  0  0  0  0  0  0  0  0  0  0
   37.8781  -18.6161   34.6054 H   0  0  0  0  0  0  0  0  0  0  0  0
   37.9470  -19.2055   36.7071 C   0  0  0  0  0  0  0  0  0  0  0  0
   37.5954  -20.6451   36.8174 C   0  0  0  0  0  0  0  0  0  0  0  0
   38.7810  -21.5665   36.6178 C   0  0  0  0  0  0  0  0  0  0  0  0
   39.2838  -21.3517   35.2071 C   0  0  0  0  0  0  0  0  0  0  0  0
   40.5639  -20.5158   35.3450 C   0  0  0  0  0  0  0  0  0  0  0  0
   40.3624  -19.9723   36.7688 C   0  0  0  0  0  0  0  0  0  0  0  0
   39.3854  -18.8636   36.6856 C   0  0  0  0  0  0  0  0  0  0  0  0
   39.9131  -21.1743   37.4151 N   0  0  0  0  0  0  0  0  0  0  0  0
   39.6155  -21.0068   38.8079 C   0  0  0  0  0  0  0  0  0  0  0  0
   34.4241  -12.9732   36.4725 O   0  0  0  0  0  0  0  0  0  0  0  0
   34.0021  -12.6288   37.7608 C   0  0  0  0  0  0  0  0  0  0  0  0
   32.7738  -11.7498   37.6576 C   0  0  0  0  0  0  0  0  0  0  0  0
   31.5391  -12.5355   38.1063 C   0  0  0  0  0  0  0  0  0  0  0  0
   30.3420  -11.8818   37.6272 N   0  0  0  0  0  0  0  0  0  0  0  0
   30.4311  -10.4580   37.5624 C   0  0  0  0  0  0  0  0  0  0  0  0
   29.2989   -9.8545   38.3313 C   0  0  0  0  0  0  0  0  0  0  0  0
   28.3189  -10.9959   38.4692 C   0  0  0  0  0  0  0  0  0  0  0  0
   29.2350  -12.2017   38.5078 C   0  0  0  0  0  0  0  0  0  0  0  0
 17 18  1  0  0  0
 18  1  1  0  0  0
  1  2  2  0  0  0
  2  3  1  0  0  0
  3  4  2  0  0  0
  4 19  1  0  0  0
 19 21  1  0  0  0
 21 22  1  0  0  0
 22 23  1  0  0  0
 23 24  1  0  0  0
 24 25  1  0  0  0
 25 26  1  0  0  0
 26 27  1  0  0  0
 26 28  1  0  0  0
 28 29  1  0  0  0
  4  5  1  0  0  0
  5  6  2  0  0  0
  6  7  1  0  0  0
  7  8  2  0  0  0
  8  9  1  0  0  0
  9 10  2  0  0  0
 10 30  1  0  0  0
 30 31  1  0  0  0
 31 32  1  0  0  0
 32 33  1  0  0  0
 33 34  1  0  0  0
 34 35  1  0  0  0
 35 36  1  0  0  0
 36 37  1  0  0  0
 37 38  1  0  0  0
  6 11  1  0  0  0
 11 12  2  0  0  0
 12 13  1  0  0  0
 13 14  2  0  0  0
 14 15  1  0  0  0
 14 16  1  0  0  0
 10  1  1  0  0  0
 38 34  1  0  0  0
 16 11  1  0  0  0
  8  3  1  0  0  0
 27 21  1  0  0  0
 28 23  1  0  0  0
 19 20  1  0  0  0
M  END
> <minimizedAffinity>
-8.27138

> <CNNscore>
0.4567600489

> <CNNaffinity>
7.0012216568

> <CNN_VS>
3.1978783607

> <CNNaffinity_variance>
0.1911955774

$$$$
[H]c1c(-c2nc3c([H])c(OC([H])([H])C([H])([H])C([H])([H])N4C([H])([H])C([H])([H])C([H])([H])C4([H])[H])c(OC([H])([H])[H])c([H])c3c(N([H])C3([H])C([H])([H])C4([H])N(C([H])([H])[H])C([H])(C([H])([H])C4([H])[H])C3([H])[H])c2[H])oc(C([H])([H])[H])c1[H]


 38 43  0  0  0  0  0  0  0  0999 V2000
   32.5143  -20.5632   34.3891 C   0  0  0  0  0  0  0  0  0  0  0  0
   33.8598  -20.1991   34.4637 C   0  0  0  0  0  0  0  0  0  0  0  0
   34.2115  -18.9597   34.8857 C   0  0  0  0  0  0  0  0  0  0  0  0
   35.5214  -18.5413   34.9802 C   0  0  0  0  0  0  0  0  0  0  0  0
   35.7374  -17.2542   35.4244 C   0  0  0  0  0  0  0  0  0  0  0  0
   34.6967  -16.4052   35.7651 C   0  0  0  0  0  0  0  0  0  0  0  0
   33.4475  -16.8324   35.6650 N   0  0  0  0  0  0  0  0  0  0  0  0
   33.1838  -18.0790   35.2368 C   0  0  0  0  0  0  0  0  0  0  0  0
   31.8604  -18.4348   35.1643 C   0  0  0  0  0  0  0  0  0  0  0  0
   31.5084  -19.6931   34.7352 C   0  0  0  0  0  0  0  0  0  0  0  0
   34.9439  -15.0409   36.2317 C   0  0  0  0  0  0  0  0  0  0  0  0
   36.1723  -14.4201   36.3192 C   0  0  0  0  0  0  0  0  0  0  0  0
   35.9257  -13.1546   36.8045 C   0  0  0  0  0  0  0  0  0  0  0  0
   34.5635  -13.0510   36.9940 C   0  0  0  0  0  0  0  0  0  0  0  0
   33.8213  -11.8479   37.5117 C   0  0  0  0  0  0  0  0  0  0  0  0
   34.0359  -14.1920   36.6402 O   0  0  0  0  0  0  0  0  0  0  0  0
   32.0788  -22.8702   34.9081 C   0  0  0  0  0  0  0  0  0  0  0  0
   32.1507  -21.8344   33.9563 O   0  0  0  0  0  0  0  0  0  0  0  0
   36.5934  -19.3830   34.6115 N   0  0  0  0  0  0  0  0  0  0  0  0
   36.4344  -20.2814   34.1051 H   0  0  0  0  0  0  0  0  0  0  0  0
   37.9732  -18.9800   34.9464 C   0  0  0  0  0  0  0  0  0  0  0  0
   38.2522  -19.4180   36.3387 C   0  0  0  0  0  0  0  0  0  0  0  0
   39.2759  -20.5315   36.4208 C   0  0  0  0  0  0  0  0  0  0  0  0
   38.6960  -21.7284   35.6996 C   0  0  0  0  0  0  0  0  0  0  0  0
   39.4307  -21.7987   34.3536 C   0  0  0  0  0  0  0  0  0  0  0  0
   39.9911  -20.3684   34.2930 C   0  0  0  0  0  0  0  0  0  0  0  0
   38.8820  -19.4749   33.8902 C   0  0  0  0  0  0  0  0  0  0  0  0
   40.4546  -20.2428   35.6472 N   0  0  0  0  0  0  0  0  0  0  0  0
   41.0477  -18.9705   35.9409 C   0  0  0  0  0  0  0  0  0  0  0  0
   30.1613  -20.0866   34.6497 O   0  0  0  0  0  0  0  0  0  0  0  0
   29.4579  -20.2953   35.8405 C   0  0  0  0  0  0  0  0  0  0  0  0
   28.7866  -21.6511   35.7842 C   0  0  0  0  0  0  0  0  0  0  0  0
   29.1044  -22.4365   37.0592 C   0  0  0  0  0  0  0  0  0  0  0  0
   28.4917  -23.7443   36.9942 N   0  0  0  0  0  0  0  0  0  0  0  0
   29.3210  -24.7585   36.4257 C   0  0  0  0  0  0  0  0  0  0  0  0
   28.5947  -25.4185   35.2970 C   0  0  0  0  0  0  0  0  0  0  0  0
   27.1534  -25.0309   35.5312 C   0  0  0  0  0  0  0  0  0  0  0  0
   27.2896  -23.6718   36.1862 C   0  0  0  0  0  0  0  0  0  0  0  0
 17 18  1  0  0  0
 18  1  1  0  0  0
  1  2  2  0  0  0
  2  3  1  0  0  0
  3  4  2  0  0  0
  4 19  1  0  0  0
 19 21  1  0  0  0
 21 22  1  0  0  0
 22 23  1  0  0  0
 23 24  1  0  0  0
 24 25  1  0  0  0
 25 26  1  0  0  0
 26 27  1  0  0  0
 26 28  1  0  0  0
 28 29  1  0  0  0
  4  5  1  0  0  0
  5  6  2  0  0  0
  6  7  1  0  0  0
  7  8  2  0  0  0
  8  9  1  0  0  0
  9 10  2  0  0  0
 10 30  1  0  0  0
 30 31  1  0  0  0
 31 32  1  0  0  0
 32 33  1  0  0  0
 33 34  1  0  0  0
 34 35  1  0  0  0
 35 36  1  0  0  0
 36 37  1  0  0  0
 37 38  1  0  0  0
  6 11  1  0  0  0
 11 12  2  0  0  0
 12 13  1  0  0  0
 13 14  2  0  0  0
 14 15  1  0  0  0
 14 16  1  0  0  0
 10  1  1  0  0  0
 38 34  1  0  0  0
 16 11  1  0  0  0
  8  3  1  0  0  0
 27 21  1  0  0  0
 28 23  1  0  0  0
 19 20  1  0  0  0
M  END
> <minimizedAffinity>
-7.17839

> <CNNscore>
0.4068819582

> <CNNaffinity>
6.4197287560

> <CNN_VS>
2.6120717525

> <CNNaffinity_variance>
0.2754365802

$$$$
[H]c1c(-c2nc3c([H])c(OC([H])([H])C([H])([H])C([H])([H])N4C([H])([H])C([H])([H])C([H])([H])C4([H])[H])c(OC([H])([H])[H])c([H])c3c(N([H])C3([H])C([H])([H])C4([H])N(C([H])([H])[H])C([H])(C([H])([H])C4([H])[H])C3([H])[H])c2[H])oc(C([H])([H])[H])c1[H]


 38 43  0  0  0  0  0  0  0  0999 V2000
   33.9244  -19.2057   35.4518 C   0  0  0  0  0  0  0  0  0  0  0  0
   35.3012  -18.9874   35.3814 C   0  0  0  0  0  0  0  0  0  0  0  0
   36.1240  -19.4906   36.3342 C   0  0  0  0  0  0  0  0  0  0  0  0
   37.4902  -19.3089   36.3202 C   0  0  0  0  0  0  0  0  0  0  0  0
   38.2082  -19.8754   37.3516 C   0  0  0  0  0  0  0  0  0  0  0  0
   37.6007  -20.5985   38.3656 C   0  0  0  0  0  0  0  0  0  0  0  0
   36.2863  -20.7580   38.3552 N   0  0  0  0  0  0  0  0  0  0  0  0
   35.5410  -20.2251   37.3715 C   0  0  0  0  0  0  0  0  0  0  0  0
   34.1877  -20.4409   37.4426 C   0  0  0  0  0  0  0  0  0  0  0  0
   33.3570  -19.9282   36.4740 C   0  0  0  0  0  0  0  0  0  0  0  0
   38.3778  -21.1902   39.4546 C   0  0  0  0  0  0  0  0  0  0  0  0
   37.9540  -22.1850   40.3105 C   0  0  0  0  0  0  0  0  0  0  0  0
   39.0064  -22.4249   41.1665 C   0  0  0  0  0  0  0  0  0  0  0  0
   40.0275  -21.5720   40.8030 C   0  0  0  0  0  0  0  0  0  0  0  0
   41.3818  -21.4701   41.4525 C   0  0  0  0  0  0  0  0  0  0  0  0
   39.6012  -20.8682   39.7890 O   0  0  0  0  0  0  0  0  0  0  0  0
   32.6063  -19.5593   33.4722 C   0  0  0  0  0  0  0  0  0  0  0  0
   33.0779  -18.6903   34.4754 O   0  0  0  0  0  0  0  0  0  0  0  0
   38.1236  -18.5521   35.3103 N   0  0  0  0  0  0  0  0  0  0  0  0
   38.1494  -17.5095   35.3427 H   0  0  0  0  0  0  0  0  0  0  0  0
   38.7693  -19.2533   34.1834 C   0  0  0  0  0  0  0  0  0  0  0  0
   39.8275  -18.3642   33.6377 C   0  0  0  0  0  0  0  0  0  0  0  0
   41.2292  -18.8831   33.8839 C   0  0  0  0  0  0  0  0  0  0  0  0
   41.4340  -18.9291   35.3822 C   0  0  0  0  0  0  0  0  0  0  0  0
   41.3309  -20.4106   35.7705 C   0  0  0  0  0  0  0  0  0  0  0  0
   40.6189  -20.9537   34.5210 C   0  0  0  0  0  0  0  0  0  0  0  0
   39.1871  -20.5972   34.6371 C   0  0  0  0  0  0  0  0  0  0  0  0
   41.3698  -20.2651   33.5078 N   0  0  0  0  0  0  0  0  0  0  0  0
   40.9380  -20.5525   32.1708 C   0  0  0  0  0  0  0  0  0  0  0  0
   31.9666  -20.1319   36.5201 O   0  0  0  0  0  0  0  0  0  0  0  0
   31.4958  -21.4416   36.6591 C   0  0  0  0  0  0  0  0  0  0  0  0
   30.5821  -21.7622   35.4953 C   0  0  0  0  0  0  0  0  0  0  0  0
   30.4396  -23.2799   35.3552 C   0  0  0  0  0  0  0  0  0  0  0  0
   29.1077  -23.6847   35.7451 N   0  0  0  0  0  0  0  0  0  0  0  0
   28.1725  -22.6113   35.8583 C   0  0  0  0  0  0  0  0  0  0  0  0
   27.5420  -22.6435   37.2143 C   0  0  0  0  0  0  0  0  0  0  0  0
   27.8399  -24.0398   37.7081 C   0  0  0  0  0  0  0  0  0  0  0  0
   29.1641  -24.3411   37.0371 C   0  0  0  0  0  0  0  0  0  0  0  0
 17 18  1  0  0  0
 18  1  1  0  0  0
  1  2  2  0  0  0
  2  3  1  0  0  0
  3  4  2  0  0  0
  4 19  1  0  0  0
 19 21  1  0  0  0
 21 22  1  0  0  0
 22 23  1  0  0  0
 23 24  1  0  0  0
 24 25  1  0  0  0
 25 26  1  0  0  0
 26 27  1  0  0  0
 26 28  1  0  0  0
 28 29  1  0  0  0
  4  5  1  0  0  0
  5  6  2  0  0  0
  6  7  1  0  0  0
  7  8  2  0  0  0
  8  9  1  0  0  0
  9 10  2  0  0  0
 10 30  1  0  0  0
 30 31  1  0  0  0
 31 32  1  0  0  0
 32 33  1  0  0  0
 33 34  1  0  0  0
 34 35  1  0  0  0
 35 36  1  0  0  0
 36 37  1  0  0  0
 37 38  1  0  0  0
  6 11  1  0  0  0
 11 12  2  0  0  0
 12 13  1  0  0  0
 13 14  2  0  0  0
 14 15  1  0  0  0
 14 16  1  0  0  0
 10  1  1  0  0  0
 38 34  1  0  0  0
 16 11  1  0  0  0
  8  3  1  0  0  0
 27 21  1  0  0  0
 28 23  1  0  0  0
 19 20  1  0  0  0
M  END
> <minimizedAffinity>
-4.91343

> <CNNscore>
0.3704988658

> <CNNaffinity>
5.9301819801

> <CNN_VS>
2.1971256733

> <CNNaffinity_variance>
0.0492305383

$$$$
[H]c1c(-c2nc3c([H])c(OC([H])([H])C([H])([H])C([H])([H])N4C([H])([H])C([H])([H])C([H])([H])C4([H])[H])c(OC([H])([H])[H])c([H])c3c(N([H])C3([H])C([H])([H])C4([H])N(C([H])([H])[H])C([H])(C([H])([H])C4([H])[H])C3([H])[H])c2[H])oc(C([H])([H])[H])c1[H]


 38 43  0  0  0  0  0  0  0  0999 V2000
   35.7030  -14.7828   36.1693 C   0  0  0  0  0  0  0  0  0  0  0  0
   36.2832  -15.9941   35.7892 C   0  0  0  0  0  0  0  0  0  0  0  0
   35.5121  -17.0926   35.5976 C   0  0  0  0  0  0  0  0  0  0  0  0
   36.0257  -18.3156   35.2229 C   0  0  0  0  0  0  0  0  0  0  0  0
   35.1281  -19.3495   35.0629 C   0  0  0  0  0  0  0  0  0  0  0  0
   33.7671  -19.1852   35.2652 C   0  0  0  0  0  0  0  0  0  0  0  0
   33.3001  -17.9996   35.6249 N   0  0  0  0  0  0  0  0  0  0  0  0
   34.1342  -16.9591   35.7942 C   0  0  0  0  0  0  0  0  0  0  0  0
   33.5617  -15.7693   36.1679 C   0  0  0  0  0  0  0  0  0  0  0  0
   34.3479  -14.6578   36.3614 C   0  0  0  0  0  0  0  0  0  0  0  0
   32.8288  -20.2944   35.0941 C   0  0  0  0  0  0  0  0  0  0  0  0
   32.8364  -21.2168   34.0690 C   0  0  0  0  0  0  0  0  0  0  0  0
   31.7814  -22.0678   34.3146 C   0  0  0  0  0  0  0  0  0  0  0  0
   31.1725  -21.6352   35.4740 C   0  0  0  0  0  0  0  0  0  0  0  0
   29.9720  -22.2543   36.1387 C   0  0  0  0  0  0  0  0  0  0  0  0
   31.8319  -20.5872   35.8894 O   0  0  0  0  0  0  0  0  0  0  0  0
   37.5576  -13.7347   37.2841 C   0  0  0  0  0  0  0  0  0  0  0  0
   36.4921  -13.6541   36.3666 O   0  0  0  0  0  0  0  0  0  0  0  0
   37.4123  -18.5086   35.0390 N   0  0  0  0  0  0  0  0  0  0  0  0
   37.8641  -18.3778   34.1075 H   0  0  0  0  0  0  0  0  0  0  0  0
   38.2439  -18.9007   36.1936 C   0  0  0  0  0  0  0  0  0  0  0  0
   37.3387  -19.4047   37.2589 C   0  0  0  0  0  0  0  0  0  0  0  0
   37.4813  -20.8918   37.5098 C   0  0  0  0  0  0  0  0  0  0  0  0
   37.0847  -21.6022   36.2342 C   0  0  0  0  0  0  0  0  0  0  0  0
   38.3988  -22.0686   35.5924 C   0  0  0  0  0  0  0  0  0  0  0  0
   39.3862  -21.1590   36.3413 C   0  0  0  0  0  0  0  0  0  0  0  0
   39.3064  -19.8159   35.7245 C   0  0  0  0  0  0  0  0  0  0  0  0
   38.8562  -21.2853   37.6708 N   0  0  0  0  0  0  0  0  0  0  0  0
   39.5698  -20.5228   38.6538 C   0  0  0  0  0  0  0  0  0  0  0  0
   33.7905  -13.4252   36.7450 O   0  0  0  0  0  0  0  0  0  0  0  0
   33.2700  -13.3103   38.0381 C   0  0  0  0  0  0  0  0  0  0  0  0
   32.4353  -12.0500   38.1223 C   0  0  0  0  0  0  0  0  0  0  0  0
   33.3538  -10.8302   38.2310 C   0  0  0  0  0  0  0  0  0  0  0  0
   33.3614  -10.1098   36.9776 N   0  0  0  0  0  0  0  0  0  0  0  0
   34.6577   -9.7045   36.5361 C   0  0  0  0  0  0  0  0  0  0  0  0
   34.6566   -8.2308   36.2810 C   0  0  0  0  0  0  0  0  0  0  0  0
   33.1879   -7.8921   36.1786 C   0  0  0  0  0  0  0  0  0  0  0  0
   32.5592   -8.9088   37.1091 C   0  0  0  0  0  0  0  0  0  0  0  0
 17 18  1  0  0  0
 18  1  1  0  0  0
  1  2  2  0  0  0
  2  3  1  0  0  0
  3  4  2  0  0  0
  4 19  1  0  0  0
 19 21  1  0  0  0
 21 22  1  0  0  0
 22 23  1  0  0  0
 23 24  1  0  0  0
 24 25  1  0  0  0
 25 26  1  0  0  0
 26 27  1  0  0  0
 26 28  1  0  0  0
 28 29  1  0  0  0
  4  5  1  0  0  0
  5  6  2  0  0  0
  6  7  1  0  0  0
  7  8  2  0  0  0
  8  9  1  0  0  0
  9 10  2  0  0  0
 10 30  1  0  0  0
 30 31  1  0  0  0
 31 32  1  0  0  0
 32 33  1  0  0  0
 33 34  1  0  0  0
 34 35  1  0  0  0
 35 36  1  0  0  0
 36 37  1  0  0  0
 37 38  1  0  0  0
  6 11  1  0  0  0
 11 12  2  0  0  0
 12 13  1  0  0  0
 13 14  2  0  0  0
 14 15  1  0  0  0
 14 16  1  0  0  0
 10  1  1  0  0  0
 38 34  1  0  0  0
 16 11  1  0  0  0
  8  3  1  0  0  0
 27 21  1  0  0  0
 28 23  1  0  0  0
 19 20  1  0  0  0
M  END
> <minimizedAffinity>
-6.26403

> <CNNscore>
0.3687099814

> <CNNaffinity>
6.8812623024

> <CNN_VS>
2.5371901989

> <CNNaffinity_variance>
0.0071884394

$$$$
[H]c1c(-c2nc3c([H])c(OC([H])([H])C([H])([H])C([H])([H])N4C([H])([H])C([H])([H])C([H])([H])C4([H])[H])c(OC([H])([H])[H])c([H])c3c(N([H])C3([H])C([H])([H])C4([H])N(C([H])([H])[H])C([H])(C([H])([H])C4([H])[H])C3([H])[H])c2[H])oc(C([H])([H])[H])c1[H]


 38 43  0  0  0  0  0  0  0  0999 V2000
   36.0391  -19.8477   36.5646 C   0  0  0  0  0  0  0  0  0  0  0  0
   37.4223  -19.8186   36.3794 C   0  0  0  0  0  0  0  0  0  0  0  0
   38.2539  -20.2435   37.3622 C   0  0  0  0  0  0  0  0  0  0  0  0
   39.6268  -20.2387   37.2397 C   0  0  0  0  0  0  0  0  0  0  0  0
   40.3535  -20.6984   38.3171 C   0  0  0  0  0  0  0  0  0  0  0  0
   39.7481  -21.1490   39.4793 C   0  0  0  0  0  0  0  0  0  0  0  0
   38.4272  -21.1428   39.5708 N   0  0  0  0  0  0  0  0  0  0  0  0
   37.6734  -20.7041   38.5480 C   0  0  0  0  0  0  0  0  0  0  0  0
   36.3138  -20.7337   38.7321 C   0  0  0  0  0  0  0  0  0  0  0  0
   35.4742  -20.3013   37.7324 C   0  0  0  0  0  0  0  0  0  0  0  0
   40.5350  -21.6304   40.6147 C   0  0  0  0  0  0  0  0  0  0  0  0
   40.1404  -21.6339   41.9361 C   0  0  0  0  0  0  0  0  0  0  0  0
   41.1908  -22.1730   42.6458 C   0  0  0  0  0  0  0  0  0  0  0  0
   42.1818  -22.4765   41.7360 C   0  0  0  0  0  0  0  0  0  0  0  0
   43.5228  -23.0874   42.0444 C   0  0  0  0  0  0  0  0  0  0  0  0
   41.7406  -22.1355   40.5551 O   0  0  0  0  0  0  0  0  0  0  0  0
   35.7489  -18.9352   34.3591 C   0  0  0  0  0  0  0  0  0  0  0  0
   35.1836  -19.4122   35.5576 O   0  0  0  0  0  0  0  0  0  0  0  0
   40.2619  -19.7578   36.0739 N   0  0  0  0  0  0  0  0  0  0  0  0
   40.5897  -18.7701   35.9972 H   0  0  0  0  0  0  0  0  0  0  0  0
   40.4715  -20.6759   34.9375 C   0  0  0  0  0  0  0  0  0  0  0  0
   41.7780  -20.3407   34.3138 C   0  0  0  0  0  0  0  0  0  0  0  0
   42.8254  -21.4182   34.5052 C   0  0  0  0  0  0  0  0  0  0  0  0
   43.0757  -21.5416   35.9922 C   0  0  0  0  0  0  0  0  0  0  0  0
   42.3602  -22.8276   36.4287 C   0  0  0  0  0  0  0  0  0  0  0  0
   41.4120  -23.0115   35.2328 C   0  0  0  0  0  0  0  0  0  0  0  0
   40.2878  -22.0652   35.4094 C   0  0  0  0  0  0  0  0  0  0  0  0
   42.3280  -22.7248   34.1636 N   0  0  0  0  0  0  0  0  0  0  0  0
   41.7378  -22.8014   32.8588 C   0  0  0  0  0  0  0  0  0  0  0  0
   34.0773  -20.3188   37.8918 O   0  0  0  0  0  0  0  0  0  0  0  0
   33.4894  -21.4662   38.4342 C   0  0  0  0  0  0  0  0  0  0  0  0
   32.8733  -22.2791   37.3155 C   0  0  0  0  0  0  0  0  0  0  0  0
   31.4369  -22.6581   37.6850 C   0  0  0  0  0  0  0  0  0  0  0  0
   30.5450  -21.5658   37.3663 N   0  0  0  0  0  0  0  0  0  0  0  0
   29.1580  -21.9037   37.4065 C   0  0  0  0  0  0  0  0  0  0  0  0
   28.5207  -21.5396   36.1034 C   0  0  0  0  0  0  0  0  0  0  0  0
   29.5105  -20.5818   35.4827 C   0  0  0  0  0  0  0  0  0  0  0  0
   30.8304  -21.0879   36.0272 C   0  0  0  0  0  0  0  0  0  0  0  0
 17 18  1  0  0  0
 18  1  1  0  0  0
  1  2  2  0  0  0
  2  3  1  0  0  0
  3  4  2  0  0  0
  4 19  1  0  0  0
 19 21  1  0  0  0
 21 22  1  0  0  0
 22 23  1  0  0  0
 23 24  1  0  0  0
 24 25  1  0  0  0
 25 26  1  0  0  0
 26 27  1  0  0  0
 26 28  1  0  0  0
 28 29  1  0  0  0
  4  5  1  0  0  0
  5  6  2  0  0  0
  6  7  1  0  0  0
  7  8  2  0  0  0
  8  9  1  0  0  0
  9 10  2  0  0  0
 10 30  1  0  0  0
 30 31  1  0  0  0
 31 32  1  0  0  0
 32 33  1  0  0  0
 33 34  1  0  0  0
 34 35  1  0  0  0
 35 36  1  0  0  0
 36 37  1  0  0  0
 37 38  1  0  0  0
  6 11  1  0  0  0
 11 12  2  0  0  0
 12 13  1  0  0  0
 13 14  2  0  0  0
 14 15  1  0  0  0
 14 16  1  0  0  0
 10  1  1  0  0  0
 38 34  1  0  0  0
 16 11  1  0  0  0
  8  3  1  0  0  0
 27 21  1  0  0  0
 28 23  1  0  0  0
 19 20  1  0  0  0
M  END
> <minimizedAffinity>
-4.62942

> <CNNscore>
0.3593991697

> <CNNaffinity>
5.8996815681

> <CNN_VS>
2.1203405857

> <CNNaffinity_variance>
0.0091984849

$$$$
[H]c1c(-c2nc3c([H])c(OC([H])([H])C([H])([H])C([H])([H])N4C([H])([H])C([H])([H])C([H])([H])C4([H])[H])c(OC([H])([H])[H])c([H])c3c(N([H])C3([H])C([H])([H])C4([H])N(C([H])([H])[H])C([H])(C([H])([H])C4([H])[H])C3([H])[H])c2[H])oc(C([H])([H])[H])c1[H]


 38 43  0  0  0  0  0  0  0  0999 V2000
   36.2260  -21.6541   37.1580 C   0  0  0  0  0  0  0  0  0  0  0  0
   37.2057  -20.6853   36.9344 C   0  0  0  0  0  0  0  0  0  0  0  0
   36.8629  -19.3789   36.8173 C   0  0  0  0  0  0  0  0  0  0  0  0
   37.7833  -18.3771   36.5958 C   0  0  0  0  0  0  0  0  0  0  0  0
   37.2975  -17.0908   36.4970 C   0  0  0  0  0  0  0  0  0  0  0  0
   35.9478  -16.7992   36.6127 C   0  0  0  0  0  0  0  0  0  0  0  0
   35.0848  -17.7805   36.8253 N   0  0  0  0  0  0  0  0  0  0  0  0
   35.5079  -19.0522   36.9291 C   0  0  0  0  0  0  0  0  0  0  0  0
   34.5431  -20.0029   37.1490 C   0  0  0  0  0  0  0  0  0  0  0  0
   34.8956  -21.3270   37.2667 C   0  0  0  0  0  0  0  0  0  0  0  0
   35.4491  -15.4284   36.5019 C   0  0  0  0  0  0  0  0  0  0  0  0
   36.1801  -14.3244   36.1163 C   0  0  0  0  0  0  0  0  0  0  0  0
   35.3090  -13.2580   36.1558 C   0  0  0  0  0  0  0  0  0  0  0  0
   34.0856  -13.7483   36.5621 C   0  0  0  0  0  0  0  0  0  0  0  0
   32.8214  -12.9531   36.7519 C   0  0  0  0  0  0  0  0  0  0  0  0
   34.2271  -15.0326   36.7516 O   0  0  0  0  0  0  0  0  0  0  0  0
   37.1333  -23.4350   38.4945 C   0  0  0  0  0  0  0  0  0  0  0  0
   36.5751  -22.9955   37.2784 O   0  0  0  0  0  0  0  0  0  0  0  0
   39.1590  -18.6584   36.4479 N   0  0  0  0  0  0  0  0  0  0  0  0
   39.8764  -18.2219   37.0673 H   0  0  0  0  0  0  0  0  0  0  0  0
   39.5927  -19.5966   35.3944 C   0  0  0  0  0  0  0  0  0  0  0  0
   39.8189  -18.8150   34.1509 C   0  0  0  0  0  0  0  0  0  0  0  0
   41.2771  -18.7438   33.7469 C   0  0  0  0  0  0  0  0  0  0  0  0
   42.0142  -18.0199   34.8522 C   0  0  0  0  0  0  0  0  0  0  0  0
   42.7750  -19.1061   35.6253 C   0  0  0  0  0  0  0  0  0  0  0  0
   42.0018  -20.3471   35.1505 C   0  0  0  0  0  0  0  0  0  0  0  0
   40.7296  -20.3920   35.9055 C   0  0  0  0  0  0  0  0  0  0  0  0
   41.9047  -20.0390   33.7504 N   0  0  0  0  0  0  0  0  0  0  0  0
   41.2028  -21.0292   32.9865 C   0  0  0  0  0  0  0  0  0  0  0  0
   33.9298  -22.3239   37.4914 O   0  0  0  0  0  0  0  0  0  0  0  0
   32.6050  -21.9250   37.6963 C   0  0  0  0  0  0  0  0  0  0  0  0
   31.8023  -22.2244   36.4481 C   0  0  0  0  0  0  0  0  0  0  0  0
   30.8221  -21.0798   36.1792 C   0  0  0  0  0  0  0  0  0  0  0  0
   31.1651  -20.4229   34.9379 N   0  0  0  0  0  0  0  0  0  0  0  0
   32.2169  -21.0534   34.2059 C   0  0  0  0  0  0  0  0  0  0  0  0
   33.2909  -20.0527   33.9193 C   0  0  0  0  0  0  0  0  0  0  0  0
   32.6041  -18.7256   34.1410 C   0  0  0  0  0  0  0  0  0  0  0  0
   31.5911  -19.0647   35.2151 C   0  0  0  0  0  0  0  0  0  0  0  0
 17 18  1  0  0  0
 18  1  1  0  0  0
  1  2  2  0  0  0
  2  3  1  0  0  0
  3  4  2  0  0  0
  4 19  1  0  0  0
 19 21  1  0  0  0
 21 22  1  0  0  0
 22 23  1  0  0  0
 23 24  1  0  0  0
 24 25  1  0  0  0
 25 26  1  0  0  0
 26 27  1  0  0  0
 26 28  1  0  0  0
 28 29  1  0  0  0
  4  5  1  0  0  0
  5  6  2  0  0  0
  6  7  1  0  0  0
  7  8  2  0  0  0
  8  9  1  0  0  0
  9 10  2  0  0  0
 10 30  1  0  0  0
 30 31  1  0  0  0
 31 32  1  0  0  0
 32 33  1  0  0  0
 33 34  1  0  0  0
 34 35  1  0  0  0
 35 36  1  0  0  0
 36 37  1  0  0  0
 37 38  1  0  0  0
  6 11  1  0  0  0
 11 12  2  0  0  0
 12 13  1  0  0  0
 13 14  2  0  0  0
 14 15  1  0  0  0
 14 16  1  0  0  0
 10  1  1  0  0  0
 38 34  1  0  0  0
 16 11  1  0  0  0
  8  3  1  0  0  0
 27 21  1  0  0  0
 28 23  1  0  0  0
 19 20  1  0  0  0
M  END
> <minimizedAffinity>
-6.91366

> <CNNscore>
0.3250005245

> <CNNaffinity>
6.4167761803

> <CNN_VS>
2.0854556561

> <CNNaffinity_variance>
0.1843074858

$$$$
[H]c1c(-c2nc3c([H])c(OC([H])([H])C([H])([H])C([H])([H])N4C([H])([H])C([H])([H])C([H])([H])C4([H])[H])c(OC([H])([H])[H])c([H])c3c(N([H])C3([H])C([H])([H])C4([H])N(C([H])([H])[H])C([H])(C([H])([H])C4([H])[H])C3([H])[H])c2[H])oc(C([H])([H])[H])c1[H]


 38 43  0  0  0  0  0  0  0  0999 V2000
   35.6663  -19.1460   36.2853 C   0  0  0  0  0  0  0  0  0  0  0  0
   37.0506  -19.2586   36.4244 C   0  0  0  0  0  0  0  0  0  0  0  0
   37.5803  -19.9661   37.4524 C   0  0  0  0  0  0  0  0  0  0  0  0
   38.9374  -20.1130   37.6435 C   0  0  0  0  0  0  0  0  0  0  0  0
   39.3399  -20.8592   38.7305 C   0  0  0  0  0  0  0  0  0  0  0  0
   38.4350  -21.4429   39.6025 C   0  0  0  0  0  0  0  0  0  0  0  0
   37.1366  -21.2860   39.3960 N   0  0  0  0  0  0  0  0  0  0  0  0
   36.6929  -20.5673   38.3503 C   0  0  0  0  0  0  0  0  0  0  0  0
   35.3316  -20.4579   38.2154 C   0  0  0  0  0  0  0  0  0  0  0  0
   34.7989  -19.7388   37.1712 C   0  0  0  0  0  0  0  0  0  0  0  0
   38.8796  -22.2290   40.7533 C   0  0  0  0  0  0  0  0  0  0  0  0
   38.0672  -22.8766   41.6602 C   0  0  0  0  0  0  0  0  0  0  0  0
   38.9123  -23.4826   42.5637 C   0  0  0  0  0  0  0  0  0  0  0  0
   40.2019  -23.1837   42.1766 C   0  0  0  0  0  0  0  0  0  0  0  0
   41.4670  -23.6282   42.8609 C   0  0  0  0  0  0  0  0  0  0  0  0
   40.1220  -22.4426   41.1043 O   0  0  0  0  0  0  0  0  0  0  0  0
   35.1211  -19.0009   33.9480 C   0  0  0  0  0  0  0  0  0  0  0  0
   35.1202  -18.4204   35.2313 O   0  0  0  0  0  0  0  0  0  0  0  0
   39.8744  -19.5029   36.7811 N   0  0  0  0  0  0  0  0  0  0  0  0
   39.6024  -18.7269   36.1387 H   0  0  0  0  0  0  0  0  0  0  0  0
   41.2740  -19.9711   36.7919 C   0  0  0  0  0  0  0  0  0  0  0  0
   41.5348  -20.6627   35.5027 C   0  0  0  0  0  0  0  0  0  0  0  0
   42.5005  -19.9137   34.6077 C   0  0  0  0  0  0  0  0  0  0  0  0
   41.8578  -18.5877   34.2643 C   0  0  0  0  0  0  0  0  0  0  0  0
   42.5836  -17.5401   35.1199 C   0  0  0  0  0  0  0  0  0  0  0  0
   43.2162  -18.4638   36.1734 C   0  0  0  0  0  0  0  0  0  0  0  0
   42.1529  -18.8325   37.1348 C   0  0  0  0  0  0  0  0  0  0  0  0
   43.6899  -19.5105   35.3105 N   0  0  0  0  0  0  0  0  0  0  0  0
   44.3483  -20.5794   36.0038 C   0  0  0  0  0  0  0  0  0  0  0  0
   33.4086  -19.6083   37.0070 O   0  0  0  0  0  0  0  0  0  0  0  0
   32.6772  -20.7445   36.6457 C   0  0  0  0  0  0  0  0  0  0  0  0
   31.6085  -20.3457   35.6503 C   0  0  0  0  0  0  0  0  0  0  0  0
   30.5406  -21.4399   35.5752 C   0  0  0  0  0  0  0  0  0  0  0  0
   31.1701  -22.7410   35.5991 N   0  0  0  0  0  0  0  0  0  0  0  0
   31.4432  -23.2898   34.3092 C   0  0  0  0  0  0  0  0  0  0  0  0
   30.8297  -24.6502   34.2088 C   0  0  0  0  0  0  0  0  0  0  0  0
   30.5704  -25.0267   35.6486 C   0  0  0  0  0  0  0  0  0  0  0  0
   30.3067  -23.6797   36.2894 C   0  0  0  0  0  0  0  0  0  0  0  0
 17 18  1  0  0  0
 18  1  1  0  0  0
  1  2  2  0  0  0
  2  3  1  0  0  0
  3  4  2  0  0  0
  4 19  1  0  0  0
 19 21  1  0  0  0
 21 22  1  0  0  0
 22 23  1  0  0  0
 23 24  1  0  0  0
 24 25  1  0  0  0
 25 26  1  0  0  0
 26 27  1  0  0  0
 26 28  1  0  0  0
 28 29  1  0  0  0
  4  5  1  0  0  0
  5  6  2  0  0  0
  6  7  1  0  0  0
  7  8  2  0  0  0
  8  9  1  0  0  0
  9 10  2  0  0  0
 10 30  1  0  0  0
 30 31  1  0  0  0
 31 32  1  0  0  0
 32 33  1  0  0  0
 33 34  1  0  0  0
 34 35  1  0  0  0
 35 36  1  0  0  0
 36 37  1  0  0  0
 37 38  1  0  0  0
  6 11  1  0  0  0
 11 12  2  0  0  0
 12 13  1  0  0  0
 13 14  2  0  0  0
 14 15  1  0  0  0
 14 16  1  0  0  0
 10  1  1  0  0  0
 38 34  1  0  0  0
 16 11  1  0  0  0
  8  3  1  0  0  0
 27 21  1  0  0  0
 28 23  1  0  0  0
 19 20  1  0  0  0
M  END
> <minimizedAffinity>
-4.73355

> <CNNscore>
0.3224345446

> <CNNaffinity>
5.8187093735

> <CNN_VS>
1.8761528730

> <CNNaffinity_variance>
0.0617740937

$$$$
[H]c1c(OC([H])([H])C([H])([H])C([H])([H])N2C([H])([H])C([H])([H])C([H])([H])C2([H])[H])c(OC([H])([H])[H])c([H])c2c(N([H])C3([H])C([H])([H])C([H])([H])N(C([H])(C([H])([H])[H])C([H])([H])[H])C([H])([H])C3([H])[H])nc(N3C([H])([H])C([H])([H])N(C4([H])C([H])([H])C([H])([H])C([H])([H])C([H])([H])C4([H])[H])C([H])([H])C([H])([H])C3([H])[H])nc12


 45 50  0  0  0  0  0  0  0  0999 V2000
   36.2963  -13.8816   36.8392 C   0  0  0  0  0  0  0  0  0  0  0  0
   36.8076  -15.1578   36.6249 C   0  0  0  0  0  0  0  0  0  0  0  0
   35.9529  -16.1960   36.3125 C   0  0  0  0  0  0  0  0  0  0  0  0
   36.4126  -17.4764   36.1033 C   0  0  0  0  0  0  0  0  0  0  0  0
   35.5323  -18.4617   35.8113 N   0  0  0  0  0  0  0  0  0  0  0  0
   34.2052  -18.2409   35.7146 C   0  0  0  0  0  0  0  0  0  0  0  0
   33.7831  -16.9806   35.9222 N   0  0  0  0  0  0  0  0  0  0  0  0
   34.5994  -15.9491   36.2172 C   0  0  0  0  0  0  0  0  0  0  0  0
   34.1070  -14.6896   36.4297 C   0  0  0  0  0  0  0  0  0  0  0  0
   34.9509  -13.6580   36.7401 C   0  0  0  0  0  0  0  0  0  0  0  0
   33.2835  -19.2815   35.4402 N   0  0  0  0  0  0  0  0  0  0  0  0
   32.8098  -19.3083   34.0622 C   0  0  0  0  0  0  0  0  0  0  0  0
   32.7656  -20.7537   33.5923 C   0  0  0  0  0  0  0  0  0  0  0  0
   31.6517  -21.4695   34.3195 C   0  0  0  0  0  0  0  0  0  0  0  0
   32.2514  -22.3154   35.3315 N   0  0  0  0  0  0  0  0  0  0  0  0
   33.2150  -21.6166   36.1064 C   0  0  0  0  0  0  0  0  0  0  0  0
   32.8713  -20.2023   36.4702 C   0  0  0  0  0  0  0  0  0  0  0  0
   31.2537  -22.9453   36.1664 C   0  0  0  0  0  0  0  0  0  0  0  0
   30.0881  -23.4857   35.3588 C   0  0  0  0  0  0  0  0  0  0  0  0
   30.5351  -24.8175   34.7816 C   0  0  0  0  0  0  0  0  0  0  0  0
   30.4286  -25.8104   35.9282 C   0  0  0  0  0  0  0  0  0  0  0  0
   30.9429  -25.2004   37.2152 C   0  0  0  0  0  0  0  0  0  0  0  0
   31.8987  -24.0542   36.9337 C   0  0  0  0  0  0  0  0  0  0  0  0
   38.4815  -13.0841   37.4613 C   0  0  0  0  0  0  0  0  0  0  0  0
   37.1249  -12.8093   37.1564 O   0  0  0  0  0  0  0  0  0  0  0  0
   37.7824  -17.8103   36.1683 N   0  0  0  0  0  0  0  0  0  0  0  0
   38.4809  -17.0690   36.3311 H   0  0  0  0  0  0  0  0  0  0  0  0
   38.2888  -19.1540   36.0199 C   0  0  0  0  0  0  0  0  0  0  0  0
   39.5166  -19.3616   36.8560 C   0  0  0  0  0  0  0  0  0  0  0  0
   40.4659  -20.3798   36.2562 C   0  0  0  0  0  0  0  0  0  0  0  0
   40.7590  -20.1682   34.8815 N   0  0  0  0  0  0  0  0  0  0  0  0
   39.9739  -19.1564   34.2663 C   0  0  0  0  0  0  0  0  0  0  0  0
   38.5166  -19.4716   34.5582 C   0  0  0  0  0  0  0  0  0  0  0  0
   42.1326  -20.2279   34.5056 C   0  0  0  0  0  0  0  0  0  0  0  0
   42.8211  -21.5248   34.8812 C   0  0  0  0  0  0  0  0  0  0  0  0
   42.9026  -19.1140   35.1617 C   0  0  0  0  0  0  0  0  0  0  0  0
   34.4369  -12.3651   36.9586 O   0  0  0  0  0  0  0  0  0  0  0  0
   33.5646  -12.1654   38.0568 C   0  0  0  0  0  0  0  0  0  0  0  0
   32.3470  -11.3579   37.6857 C   0  0  0  0  0  0  0  0  0  0  0  0
   31.2500  -12.1810   37.0803 C   0  0  0  0  0  0  0  0  0  0  0  0
   29.9746  -11.5985   37.4369 N   0  0  0  0  0  0  0  0  0  0  0  0
   29.4718  -12.1832   38.6515 C   0  0  0  0  0  0  0  0  0  0  0  0
   28.5447  -11.1526   39.2406 C   0  0  0  0  0  0  0  0  0  0  0  0
   29.1189   -9.8405   38.7648 C   0  0  0  0  0  0  0  0  0  0  0  0
   30.1145  -10.1925   37.6904 C   0  0  0  0  0  0  0  0  0  0  0  0
 24 25  1  0  0  0
 25  1  1  0  0  0
  1  2  2  0  0  0
  2  3  1  0  0  0
  3  4  2  0  0  0
  4 26  1  0  0  0
 26 28  1  0  0  0
 28 29  1  0  0  0
 29 30  1  0  0  0
 30 31  1  0  0  0
 31 32  1  0  0  0
 32 33  1  0  0  0
 31 34  1  0  0  0
 34 35  1  0  0  0
 34 36  1  0  0  0
  4  5  1  0  0  0
  5  6  2  0  0  0
  6  7  1  0  0  0
  7  8  2  0  0  0
  8  9  1  0  0  0
  9 10  2  0  0  0
 10 37  1  0  0  0
 37 38  1  0  0  0
 38 39  1  0  0  0
 39 40  1  0  0  0
 40 41  1  0  0  0
 41 42  1  0  0  0
 42 43  1  0  0  0
 43 44  1  0  0  0
 44 45  1  0  0  0
  6 11  1  0  0  0
 11 12  1  0  0  0
 12 13  1  0  0  0
 13 14  1  0  0  0
 14 15  1  0  0  0
 15 16  1  0  0  0
 16 17  1  0  0  0
 15 18  1  0  0  0
 18 19  1  0  0  0
 19 20  1  0  0  0
 20 21  1  0  0  0
 21 22  1  0  0  0
 22 23  1  0  0  0
 10  1  1  0  0  0
 45 41  1  0  0  0
 17 11  1  0  0  0
 23 18  1  0  0  0
  8  3  1  0  0  0
 33 28  1  0  0  0
 26 27  1  0  0  0
M  END
> <minimizedAffinity>
-8.25051

> <CNNscore>
0.4524333775

> <CNNaffinity>
7.4051766396

> <CNN_VS>
3.3503491879

> <CNNaffinity_variance>
0.1301479191

$$$$
[H]c1c(OC([H])([H])C([H])([H])C([H])([H])N2C([H])([H])C([H])([H])C([H])([H])C2([H])[H])c(OC([H])([H])[H])c([H])c2c(N([H])C3([H])C([H])([H])C([H])([H])N(C([H])(C([H])([H])[H])C([H])([H])[H])C([H])([H])C3([H])[H])nc(N3C([H])([H])C([H])([H])N(C4([H])C([H])([H])C([H])([H])C([H])([H])C([H])([H])C4([H])[H])C([H])([H])C([H])([H])C3([H])[H])nc12


 45 50  0  0  0  0  0  0  0  0999 V2000
   36.0185  -14.5550   36.1733 C   0  0  0  0  0  0  0  0  0  0  0  0
   36.3915  -15.7839   35.6378 C   0  0  0  0  0  0  0  0  0  0  0  0
   35.4364  -16.7576   35.4240 C   0  0  0  0  0  0  0  0  0  0  0  0
   35.7610  -17.9912   34.9070 C   0  0  0  0  0  0  0  0  0  0  0  0
   34.7896  -18.9159   34.7275 N   0  0  0  0  0  0  0  0  0  0  0  0
   33.4984  -18.6780   35.0371 C   0  0  0  0  0  0  0  0  0  0  0  0
   33.2086  -17.4641   35.5390 N   0  0  0  0  0  0  0  0  0  0  0  0
   34.1216  -16.4942   35.7461 C   0  0  0  0  0  0  0  0  0  0  0  0
   33.7655  -15.2816   36.2721 C   0  0  0  0  0  0  0  0  0  0  0  0
   34.7093  -14.3140   36.4861 C   0  0  0  0  0  0  0  0  0  0  0  0
   32.4893  -19.6598   34.8775 N   0  0  0  0  0  0  0  0  0  0  0  0
   32.8290  -20.7130   33.9291 C   0  0  0  0  0  0  0  0  0  0  0  0
   32.3771  -22.0467   34.5027 C   0  0  0  0  0  0  0  0  0  0  0  0
   30.8673  -22.0947   34.4954 C   0  0  0  0  0  0  0  0  0  0  0  0
   30.4083  -21.8948   35.8551 N   0  0  0  0  0  0  0  0  0  0  0  0
   31.0388  -20.7812   36.4712 C   0  0  0  0  0  0  0  0  0  0  0  0
   31.2464  -19.5753   35.6031 C   0  0  0  0  0  0  0  0  0  0  0  0
   28.9681  -21.7972   35.9278 C   0  0  0  0  0  0  0  0  0  0  0  0
   28.2873  -23.1188   35.6231 C   0  0  0  0  0  0  0  0  0  0  0  0
   28.3568  -23.9501   36.8922 C   0  0  0  0  0  0  0  0  0  0  0  0
   27.2673  -23.3970   37.7971 C   0  0  0  0  0  0  0  0  0  0  0  0
   27.2443  -21.8838   37.7453 C   0  0  0  0  0  0  0  0  0  0  0  0
   28.5857  -21.3313   37.2957 C   0  0  0  0  0  0  0  0  0  0  0  0
   37.8106  -13.6812   37.5235 C   0  0  0  0  0  0  0  0  0  0  0  0
   36.9513  -13.5482   36.4042 O   0  0  0  0  0  0  0  0  0  0  0  0
   37.0792  -18.3360   34.5387 N   0  0  0  0  0  0  0  0  0  0  0  0
   37.5139  -17.8858   33.7188 H   0  0  0  0  0  0  0  0  0  0  0  0
   37.8848  -19.3005   35.2491 C   0  0  0  0  0  0  0  0  0  0  0  0
   38.5994  -18.6598   36.4017 C   0  0  0  0  0  0  0  0  0  0  0  0
   39.9201  -19.3338   36.7170 C   0  0  0  0  0  0  0  0  0  0  0  0
   40.7582  -19.5367   35.5870 N   0  0  0  0  0  0  0  0  0  0  0  0
   40.1405  -19.2428   34.3418 C   0  0  0  0  0  0  0  0  0  0  0  0
   38.8261  -20.0035   34.2957 C   0  0  0  0  0  0  0  0  0  0  0  0
   42.1238  -19.1540   35.7287 C   0  0  0  0  0  0  0  0  0  0  0  0
   42.4067  -18.3139   36.9580 C   0  0  0  0  0  0  0  0  0  0  0  0
   42.5682  -18.3524   34.5352 C   0  0  0  0  0  0  0  0  0  0  0  0
   34.3356  -13.0693   37.0289 O   0  0  0  0  0  0  0  0  0  0  0  0
   33.5367  -13.0587   38.1987 C   0  0  0  0  0  0  0  0  0  0  0  0
   32.4464  -12.0193   38.1421 C   0  0  0  0  0  0  0  0  0  0  0  0
   31.5179  -12.1949   36.9782 C   0  0  0  0  0  0  0  0  0  0  0  0
   30.2040  -11.7166   37.3497 N   0  0  0  0  0  0  0  0  0  0  0  0
   29.7860  -12.2994   38.5969 C   0  0  0  0  0  0  0  0  0  0  0  0
   28.7837  -11.3355   39.1757 C   0  0  0  0  0  0  0  0  0  0  0  0
   29.2247   -9.9954   38.6398 C   0  0  0  0  0  0  0  0  0  0  0  0
   30.2218  -10.2955   37.5511 C   0  0  0  0  0  0  0  0  0  0  0  0
 24 25  1  0  0  0
 25  1  1  0  0  0
  1  2  2  0  0  0
  2  3  1  0  0  0
  3  4  2  0  0  0
  4 26  1  0  0  0
 26 28  1  0  0  0
 28 29  1  0  0  0
 29 30  1  0  0  0
 30 31  1  0  0  0
 31 32  1  0  0  0
 32 33  1  0  0  0
 31 34  1  0  0  0
 34 35  1  0  0  0
 34 36  1  0  0  0
  4  5  1  0  0  0
  5  6  2  0  0  0
  6  7  1  0  0  0
  7  8  2  0  0  0
  8  9  1  0  0  0
  9 10  2  0  0  0
 10 37  1  0  0  0
 37 38  1  0  0  0
 38 39  1  0  0  0
 39 40  1  0  0  0
 40 41  1  0  0  0
 41 42  1  0  0  0
 42 43  1  0  0  0
 43 44  1  0  0  0
 44 45  1  0  0  0
  6 11  1  0  0  0
 11 12  1  0  0  0
 12 13  1  0  0  0
 13 14  1  0  0  0
 14 15  1  0  0  0
 15 16  1  0  0  0
 16 17  1  0  0  0
 15 18  1  0  0  0
 18 19  1  0  0  0
 19 20  1  0  0  0
 20 21  1  0  0  0
 21 22  1  0  0  0
 22 23  1  0  0  0
 10  1  1  0  0  0
 45 41  1  0  0  0
 17 11  1  0  0  0
 23 18  1  0  0  0
  8  3  1  0  0  0
 33 28  1  0  0  0
 26 27  1  0  0  0
M  END
> <minimizedAffinity>
-8.31378

> <CNNscore>
0.4321957827

> <CNNaffinity>
7.3502602577

> <CNN_VS>
3.1767513752

> <CNNaffinity_variance>
0.0767131895

$$$$
[H]c1c(OC([H])([H])C([H])([H])C([H])([H])N2C([H])([H])C([H])([H])C([H])([H])C2([H])[H])c(OC([H])([H])[H])c([H])c2c(N([H])C3([H])C([H])([H])C([H])([H])N(C([H])(C([H])([H])[H])C([H])([H])[H])C([H])([H])C3([H])[H])nc(N3C([H])([H])C([H])([H])N(C4([H])C([H])([H])C([H])([H])C([H])([H])C([H])([H])C4([H])[H])C([H])([H])C([H])([H])C3([H])[H])nc12


 45 50  0  0  0  0  0  0  0  0999 V2000
   36.0230  -15.0308   36.0032 C   0  0  0  0  0  0  0  0  0  0  0  0
   36.3768  -16.3329   35.6636 C   0  0  0  0  0  0  0  0  0  0  0  0
   35.3938  -17.2829   35.4705 C   0  0  0  0  0  0  0  0  0  0  0  0
   35.6974  -18.5852   35.1446 C   0  0  0  0  0  0  0  0  0  0  0  0
   34.6975  -19.4814   34.9776 N   0  0  0  0  0  0  0  0  0  0  0  0
   33.3977  -19.1496   35.1182 C   0  0  0  0  0  0  0  0  0  0  0  0
   33.1290  -17.8702   35.4353 N   0  0  0  0  0  0  0  0  0  0  0  0
   34.0706  -16.9230   35.6178 C   0  0  0  0  0  0  0  0  0  0  0  0
   33.7337  -15.6390   35.9519 C   0  0  0  0  0  0  0  0  0  0  0  0
   34.7052  -14.6945   36.1447 C   0  0  0  0  0  0  0  0  0  0  0  0
   32.3551  -20.0983   34.9739 N   0  0  0  0  0  0  0  0  0  0  0  0
   32.6773  -21.2048   34.0818 C   0  0  0  0  0  0  0  0  0  0  0  0
   32.1588  -22.4935   34.7002 C   0  0  0  0  0  0  0  0  0  0  0  0
   30.6489  -22.4841   34.6537 C   0  0  0  0  0  0  0  0  0  0  0  0
   30.1635  -22.2066   35.9905 N   0  0  0  0  0  0  0  0  0  0  0  0
   30.8213  -21.0916   36.5745 C   0  0  0  0  0  0  0  0  0  0  0  0
   31.0983  -19.9342   35.6609 C   0  0  0  0  0  0  0  0  0  0  0  0
   28.7268  -22.0510   36.0194 C   0  0  0  0  0  0  0  0  0  0  0  0
   28.0027  -23.3650   35.7915 C   0  0  0  0  0  0  0  0  0  0  0  0
   28.0112  -24.1055   37.1173 C   0  0  0  0  0  0  0  0  0  0  0  0
   26.9235  -23.4494   37.9531 C   0  0  0  0  0  0  0  0  0  0  0  0
   26.9602  -21.9439   37.7941 C   0  0  0  0  0  0  0  0  0  0  0  0
   28.3317  -21.4749   37.3409 C   0  0  0  0  0  0  0  0  0  0  0  0
   37.5231  -13.8999   37.5097 C   0  0  0  0  0  0  0  0  0  0  0  0
   36.9841  -14.0449   36.2068 O   0  0  0  0  0  0  0  0  0  0  0  0
   37.0238  -19.0317   34.9618 N   0  0  0  0  0  0  0  0  0  0  0  0
   37.5055  -18.8473   34.0686 H   0  0  0  0  0  0  0  0  0  0  0  0
   37.7752  -19.7471   35.9656 C   0  0  0  0  0  0  0  0  0  0  0  0
   38.8140  -18.8642   36.5910 C   0  0  0  0  0  0  0  0  0  0  0  0
   40.0310  -19.6368   37.0600 C   0  0  0  0  0  0  0  0  0  0  0  0
   40.5686  -20.5268   36.0909 N   0  0  0  0  0  0  0  0  0  0  0  0
   39.7692  -20.6730   34.9255 C   0  0  0  0  0  0  0  0  0  0  0  0
   38.3603  -21.0140   35.3807 C   0  0  0  0  0  0  0  0  0  0  0  0
   41.9797  -20.4808   35.8959 C   0  0  0  0  0  0  0  0  0  0  0  0
   42.4794  -19.1820   35.2954 C   0  0  0  0  0  0  0  0  0  0  0  0
   42.4163  -21.5885   34.9757 C   0  0  0  0  0  0  0  0  0  0  0  0
   34.3509  -13.3758   36.4895 O   0  0  0  0  0  0  0  0  0  0  0  0
   33.2752  -13.1826   37.3909 C   0  0  0  0  0  0  0  0  0  0  0  0
   33.3851  -11.8843   38.1488 C   0  0  0  0  0  0  0  0  0  0  0  0
   32.3844  -10.8560   37.7143 C   0  0  0  0  0  0  0  0  0  0  0  0
   33.0410   -9.5699   37.6261 N   0  0  0  0  0  0  0  0  0  0  0  0
   34.2538   -9.6711   36.8587 C   0  0  0  0  0  0  0  0  0  0  0  0
   34.5059   -8.2873   36.3201 C   0  0  0  0  0  0  0  0  0  0  0  0
   33.1232   -7.6975   36.1861 C   0  0  0  0  0  0  0  0  0  0  0  0
   32.2064   -8.6221   36.9437 C   0  0  0  0  0  0  0  0  0  0  0  0
 24 25  1  0  0  0
 25  1  1  0  0  0
  1  2  2  0  0  0
  2  3  1  0  0  0
  3  4  2  0  0  0
  4 26  1  0  0  0
 26 28  1  0  0  0
 28 29  1  0  0  0
 29 30  1  0  0  0
 30 31  1  0  0  0
 31 32  1  0  0  0
 32 33  1  0  0  0
 31 34  1  0  0  0
 34 35  1  0  0  0
 34 36  1  0  0  0
  4  5  1  0  0  0
  5  6  2  0  0  0
  6  7  1  0  0  0
  7  8  2  0  0  0
  8  9  1  0  0  0
  9 10  2  0  0  0
 10 37  1  0  0  0
 37 38  1  0  0  0
 38 39  1  0  0  0
 39 40  1  0  0  0
 40 41  1  0  0  0
 41 42  1  0  0  0
 42 43  1  0  0  0
 43 44  1  0  0  0
 44 45  1  0  0  0
  6 11  1  0  0  0
 11 12  1  0  0  0
 12 13  1  0  0  0
 13 14  1  0  0  0
 14 15  1  0  0  0
 15 16  1  0  0  0
 16 17  1  0  0  0
 15 18  1  0  0  0
 18 19  1  0  0  0
 19 20  1  0  0  0
 20 21  1  0  0  0
 21 22  1  0  0  0
 22 23  1  0  0  0
 10  1  1  0  0  0
 45 41  1  0  0  0
 17 11  1  0  0  0
 23 18  1  0  0  0
  8  3  1  0  0  0
 33 28  1  0  0  0
 26 27  1  0  0  0
M  END
> <minimizedAffinity>
-8.05867

> <CNNscore>
0.3683845699

> <CNNaffinity>
7.0938591957

> <CNN_VS>
2.6132683754

> <CNNaffinity_variance>
0.0538175590

$$$$
[H]c1c(OC([H])([H])C([H])([H])C([H])([H])N2C([H])([H])C([H])([H])C([H])([H])C2([H])[H])c(OC([H])([H])[H])c([H])c2c(N([H])C3([H])C([H])([H])C([H])([H])N(C([H])(C([H])([H])[H])C([H])([H])[H])C([H])([H])C3([H])[H])nc(N3C([H])([H])C([H])([H])N(C4([H])C([H])([H])C([H])([H])C([H])([H])C([H])([H])C4([H])[H])C([H])([H])C([H])([H])C3([H])[H])nc12


 45 50  0  0  0  0  0  0  0  0999 V2000
   36.0036  -14.7177   36.1901 C   0  0  0  0  0  0  0  0  0  0  0  0
   36.3884  -16.0317   35.9424 C   0  0  0  0  0  0  0  0  0  0  0  0
   35.4284  -16.9939   35.7008 C   0  0  0  0  0  0  0  0  0  0  0  0
   35.7620  -18.3078   35.4621 C   0  0  0  0  0  0  0  0  0  0  0  0
   34.7826  -19.2153   35.2426 N   0  0  0  0  0  0  0  0  0  0  0  0
   33.4751  -18.8839   35.2471 C   0  0  0  0  0  0  0  0  0  0  0  0
   33.1771  -17.5933   35.4813 N   0  0  0  0  0  0  0  0  0  0  0  0
   34.0970  -16.6344   35.7085 C   0  0  0  0  0  0  0  0  0  0  0  0
   33.7295  -15.3386   35.9530 C   0  0  0  0  0  0  0  0  0  0  0  0
   34.6780  -14.3819   36.1935 C   0  0  0  0  0  0  0  0  0  0  0  0
   32.4513  -19.8431   35.0484 N   0  0  0  0  0  0  0  0  0  0  0  0
   32.7841  -20.8752   34.0748 C   0  0  0  0  0  0  0  0  0  0  0  0
   32.3026  -22.2163   34.6054 C   0  0  0  0  0  0  0  0  0  0  0  0
   30.7924  -22.2377   34.5796 C   0  0  0  0  0  0  0  0  0  0  0  0
   30.3208  -22.0678   35.9390 N   0  0  0  0  0  0  0  0  0  0  0  0
   30.9628  -20.9830   36.5933 C   0  0  0  0  0  0  0  0  0  0  0  0
   31.2014  -19.7572   35.7619 C   0  0  0  0  0  0  0  0  0  0  0  0
   28.8816  -21.9471   35.9979 C   0  0  0  0  0  0  0  0  0  0  0  0
   28.1822  -23.2513   35.6621 C   0  0  0  0  0  0  0  0  0  0  0  0
   28.2238  -24.1063   36.9166 C   0  0  0  0  0  0  0  0  0  0  0  0
   27.1337  -23.5511   37.8197 C   0  0  0  0  0  0  0  0  0  0  0  0
   27.1367  -22.0370   37.7950 C   0  0  0  0  0  0  0  0  0  0  0  0
   28.4920  -21.4994   37.3699 C   0  0  0  0  0  0  0  0  0  0  0  0
   37.7144  -13.8123   37.6225 C   0  0  0  0  0  0  0  0  0  0  0  0
   36.9408  -13.7191   36.4384 O   0  0  0  0  0  0  0  0  0  0  0  0
   37.1000  -18.7553   35.4233 N   0  0  0  0  0  0  0  0  0  0  0  0
   37.5438  -18.9580   34.5145 H   0  0  0  0  0  0  0  0  0  0  0  0
   37.9143  -18.9540   36.5987 C   0  0  0  0  0  0  0  0  0  0  0  0
   39.3300  -19.2776   36.2238 C   0  0  0  0  0  0  0  0  0  0  0  0
   40.0177  -20.1594   37.2473 C   0  0  0  0  0  0  0  0  0  0  0  0
   39.2686  -21.3050   37.6305 N   0  0  0  0  0  0  0  0  0  0  0  0
   37.9388  -21.3269   37.1308 C   0  0  0  0  0  0  0  0  0  0  0  0
   37.2937  -20.0010   37.4973 C   0  0  0  0  0  0  0  0  0  0  0  0
   39.9662  -22.5479   37.6448 C   0  0  0  0  0  0  0  0  0  0  0  0
   40.4198  -23.0186   36.2775 C   0  0  0  0  0  0  0  0  0  0  0  0
   39.0918  -23.6311   38.2163 C   0  0  0  0  0  0  0  0  0  0  0  0
   34.2922  -13.0511   36.4456 O   0  0  0  0  0  0  0  0  0  0  0  0
   34.0808  -12.6556   37.7893 C   0  0  0  0  0  0  0  0  0  0  0  0
   32.6215  -12.4500   38.1063 C   0  0  0  0  0  0  0  0  0  0  0  0
   31.7719  -12.2454   36.8882 C   0  0  0  0  0  0  0  0  0  0  0  0
   30.4257  -11.9174   37.3046 N   0  0  0  0  0  0  0  0  0  0  0  0
   30.1721  -12.4074   38.6333 C   0  0  0  0  0  0  0  0  0  0  0  0
   29.0741  -11.5343   39.1816 C   0  0  0  0  0  0  0  0  0  0  0  0
   29.2800  -10.2153   38.4777 C   0  0  0  0  0  0  0  0  0  0  0  0
   30.2450  -10.4942   37.3551 C   0  0  0  0  0  0  0  0  0  0  0  0
 24 25  1  0  0  0
 25  1  1  0  0  0
  1  2  2  0  0  0
  2  3  1  0  0  0
  3  4  2  0  0  0
  4 26  1  0  0  0
 26 28  1  0  0  0
 28 29  1  0  0  0
 29 30  1  0  0  0
 30 31  1  0  0  0
 31 32  1  0  0  0
 32 33  1  0  0  0
 31 34  1  0  0  0
 34 35  1  0  0  0
 34 36  1  0  0  0
  4  5  1  0  0  0
  5  6  2  0  0  0
  6  7  1  0  0  0
  7  8  2  0  0  0
  8  9  1  0  0  0
  9 10  2  0  0  0
 10 37  1  0  0  0
 37 38  1  0  0  0
 38 39  1  0  0  0
 39 40  1  0  0  0
 40 41  1  0  0  0
 41 42  1  0  0  0
 42 43  1  0  0  0
 43 44  1  0  0  0
 44 45  1  0  0  0
  6 11  1  0  0  0
 11 12  1  0  0  0
 12 13  1  0  0  0
 13 14  1  0  0  0
 14 15  1  0  0  0
 15 16  1  0  0  0
 16 17  1  0  0  0
 15 18  1  0  0  0
 18 19  1  0  0  0
 19 20  1  0  0  0
 20 21  1  0  0  0
 21 22  1  0  0  0
 22 23  1  0  0  0
 10  1  1  0  0  0
 45 41  1  0  0  0
 17 11  1  0  0  0
 23 18  1  0  0  0
  8  3  1  0  0  0
 33 28  1  0  0  0
 26 27  1  0  0  0
M  END
> <minimizedAffinity>
-7.88431

> <CNNscore>
0.3007172644

> <CNNaffinity>
7.0296120644

> <CNN_VS>
2.1139256954

> <CNNaffinity_variance>
0.0981360525

$$$$
[H]c1c(OC([H])([H])C([H])([H])C([H])([H])N2C([H])([H])C([H])([H])C([H])([H])C2([H])[H])c(OC([H])([H])[H])c([H])c2c(N([H])C3([H])C([H])([H])C([H])([H])N(C([H])(C([H])([H])[H])C([H])([H])[H])C([H])([H])C3([H])[H])nc(N3C([H])([H])C([H])([H])N(C4([H])C([H])([H])C([H])([H])C([H])([H])C([H])([H])C4([H])[H])C([H])([H])C([H])([H])C3([H])[H])nc12


 45 50  0  0  0  0  0  0  0  0999 V2000
   32.4796  -20.8766   34.5260 C   0  0  0  0  0  0  0  0  0  0  0  0
   33.7378  -20.2944   34.4082 C   0  0  0  0  0  0  0  0  0  0  0  0
   33.9580  -19.0281   34.9122 C   0  0  0  0  0  0  0  0  0  0  0  0
   35.1828  -18.4087   34.8086 C   0  0  0  0  0  0  0  0  0  0  0  0
   35.3440  -17.1617   35.3084 N   0  0  0  0  0  0  0  0  0  0  0  0
   34.3428  -16.4896   35.9129 C   0  0  0  0  0  0  0  0  0  0  0  0
   33.1571  -17.1186   36.0021 N   0  0  0  0  0  0  0  0  0  0  0  0
   32.9215  -18.3582   35.5278 C   0  0  0  0  0  0  0  0  0  0  0  0
   31.6876  -18.9405   35.6385 C   0  0  0  0  0  0  0  0  0  0  0  0
   31.4651  -20.1953   35.1397 C   0  0  0  0  0  0  0  0  0  0  0  0
   34.5069  -15.1716   36.4066 N   0  0  0  0  0  0  0  0  0  0  0  0
   35.8743  -14.6735   36.3291 C   0  0  0  0  0  0  0  0  0  0  0  0
   35.8378  -13.2256   35.8663 C   0  0  0  0  0  0  0  0  0  0  0  0
   35.2574  -12.3746   36.9713 C   0  0  0  0  0  0  0  0  0  0  0  0
   33.8996  -12.0292   36.6015 N   0  0  0  0  0  0  0  0  0  0  0  0
   33.1601  -13.1634   36.1727 C   0  0  0  0  0  0  0  0  0  0  0  0
   33.3905  -14.4318   36.9402 C   0  0  0  0  0  0  0  0  0  0  0  0
   33.2178  -11.3198   37.6602 C   0  0  0  0  0  0  0  0  0  0  0  0
   33.7797   -9.9260   37.8714 C   0  0  0  0  0  0  0  0  0  0  0  0
   33.1683   -9.0402   36.7999 C   0  0  0  0  0  0  0  0  0  0  0  0
   31.7593   -8.7356   37.2837 C   0  0  0  0  0  0  0  0  0  0  0  0
   31.1125   -9.9752   37.8650 C   0  0  0  0  0  0  0  0  0  0  0  0
   31.7635  -11.2366   37.3249 C   0  0  0  0  0  0  0  0  0  0  0  0
   32.2188  -23.2334   34.9451 C   0  0  0  0  0  0  0  0  0  0  0  0
   32.2176  -22.1505   34.0305 O   0  0  0  0  0  0  0  0  0  0  0  0
   36.2980  -19.0299   34.2064 N   0  0  0  0  0  0  0  0  0  0  0  0
   36.4094  -18.9952   33.1816 H   0  0  0  0  0  0  0  0  0  0  0  0
   37.3230  -19.7288   34.9446 C   0  0  0  0  0  0  0  0  0  0  0  0
   37.9548  -18.8326   35.9679 C   0  0  0  0  0  0  0  0  0  0  0  0
   39.4013  -19.1916   36.2448 C   0  0  0  0  0  0  0  0  0  0  0  0
   40.1982  -19.3518   35.0787 N   0  0  0  0  0  0  0  0  0  0  0  0
   39.4642  -19.3294   33.8625 C   0  0  0  0  0  0  0  0  0  0  0  0
   38.3333  -20.3354   33.9955 C   0  0  0  0  0  0  0  0  0  0  0  0
   41.4620  -18.6929   35.0743 C   0  0  0  0  0  0  0  0  0  0  0  0
   42.0750  -18.5393   33.6968 C   0  0  0  0  0  0  0  0  0  0  0  0
   42.4511  -19.4546   35.9145 C   0  0  0  0  0  0  0  0  0  0  0  0
   30.1926  -20.7873   35.2562 O   0  0  0  0  0  0  0  0  0  0  0  0
   29.7750  -21.2375   36.5327 C   0  0  0  0  0  0  0  0  0  0  0  0
   28.2842  -21.4468   36.6104 C   0  0  0  0  0  0  0  0  0  0  0  0
   27.5815  -20.4135   37.4386 C   0  0  0  0  0  0  0  0  0  0  0  0
   27.8149  -20.6955   38.8382 N   0  0  0  0  0  0  0  0  0  0  0  0
   27.1365  -19.7366   39.6690 C   0  0  0  0  0  0  0  0  0  0  0  0
   26.9210  -20.4288   40.9892 C   0  0  0  0  0  0  0  0  0  0  0  0
   26.8106  -21.8868   40.6154 C   0  0  0  0  0  0  0  0  0  0  0  0
   27.2862  -21.9831   39.1893 C   0  0  0  0  0  0  0  0  0  0  0  0
 24 25  1  0  0  0
 25  1  1  0  0  0
  1  2  2  0  0  0
  2  3  1  0  0  0
  3  4  2  0  0  0
  4 26  1  0  0  0
 26 28  1  0  0  0
 28 29  1  0  0  0
 29 30  1  0  0  0
 30 31  1  0  0  0
 31 32  1  0  0  0
 32 33  1  0  0  0
 31 34  1  0  0  0
 34 35  1  0  0  0
 34 36  1  0  0  0
  4  5  1  0  0  0
  5  6  2  0  0  0
  6  7  1  0  0  0
  7  8  2  0  0  0
  8  9  1  0  0  0
  9 10  2  0  0  0
 10 37  1  0  0  0
 37 38  1  0  0  0
 38 39  1  0  0  0
 39 40  1  0  0  0
 40 41  1  0  0  0
 41 42  1  0  0  0
 42 43  1  0  0  0
 43 44  1  0  0  0
 44 45  1  0  0  0
  6 11  1  0  0  0
 11 12  1  0  0  0
 12 13  1  0  0  0
 13 14  1  0  0  0
 14 15  1  0  0  0
 15 16  1  0  0  0
 16 17  1  0  0  0
 15 18  1  0  0  0
 18 19  1  0  0  0
 19 20  1  0  0  0
 20 21  1  0  0  0
 21 22  1  0  0  0
 22 23  1  0  0  0
 10  1  1  0  0  0
 45 41  1  0  0  0
 17 11  1  0  0  0
 23 18  1  0  0  0
  8  3  1  0  0  0
 33 28  1  0  0  0
 26 27  1  0  0  0
M  END
> <minimizedAffinity>
-7.44257

> <CNNscore>
0.2344087809

> <CNNaffinity>
7.0295257568

> <CNN_VS>
1.6477825642

> <CNNaffinity_variance>
0.0842262059

$$$$
[H]c1c(OC([H])([H])C([H])([H])C([H])([H])N2C([H])([H])C([H])([H])C([H])([H])C2([H])[H])c(OC([H])([H])[H])c([H])c2c(N([H])C3([H])C([H])([H])C([H])([H])N(C([H])(C([H])([H])[H])C([H])([H])[H])C([H])([H])C3([H])[H])nc(N3C([H])([H])C([H])([H])N(C4([H])C([H])([H])C([H])([H])C([H])([H])C([H])([H])C4([H])[H])C([H])([H])C([H])([H])C3([H])[H])nc12


 45 50  0  0  0  0  0  0  0  0999 V2000
   32.5765  -20.7726   34.2875 C   0  0  0  0  0  0  0  0  0  0  0  0
   33.8496  -20.2113   34.2886 C   0  0  0  0  0  0  0  0  0  0  0  0
   34.0452  -18.9549   34.8263 C   0  0  0  0  0  0  0  0  0  0  0  0
   35.2844  -18.3560   34.8390 C   0  0  0  0  0  0  0  0  0  0  0  0
   35.4214  -17.1178   35.3671 N   0  0  0  0  0  0  0  0  0  0  0  0
   34.3820  -16.4352   35.8897 C   0  0  0  0  0  0  0  0  0  0  0  0
   33.1828  -17.0442   35.8660 N   0  0  0  0  0  0  0  0  0  0  0  0
   32.9696  -18.2740   35.3568 C   0  0  0  0  0  0  0  0  0  0  0  0
   31.7213  -18.8358   35.3509 C   0  0  0  0  0  0  0  0  0  0  0  0
   31.5232  -20.0807   34.8182 C   0  0  0  0  0  0  0  0  0  0  0  0
   34.5235  -15.1260   36.4129 N   0  0  0  0  0  0  0  0  0  0  0  0
   35.8957  -14.6352   36.4241 C   0  0  0  0  0  0  0  0  0  0  0  0
   35.8942  -13.1801   35.9829 C   0  0  0  0  0  0  0  0  0  0  0  0
   35.2539  -12.3426   37.0649 C   0  0  0  0  0  0  0  0  0  0  0  0
   33.9222  -11.9833   36.6211 N   0  0  0  0  0  0  0  0  0  0  0  0
   33.2035  -13.1061   36.1316 C   0  0  0  0  0  0  0  0  0  0  0  0
   33.3814  -14.3875   36.8913 C   0  0  0  0  0  0  0  0  0  0  0  0
   33.1828  -11.2860   37.6488 C   0  0  0  0  0  0  0  0  0  0  0  0
   33.7545   -9.9093   37.9331 C   0  0  0  0  0  0  0  0  0  0  0  0
   33.2343   -8.9858   36.8454 C   0  0  0  0  0  0  0  0  0  0  0  0
   31.8014   -8.6647   37.2400 C   0  0  0  0  0  0  0  0  0  0  0  0
   31.0935   -9.9047   37.7443 C   0  0  0  0  0  0  0  0  0  0  0  0
   31.7566  -11.1655   37.2177 C   0  0  0  0  0  0  0  0  0  0  0  0
   31.8542  -23.0449   34.6245 C   0  0  0  0  0  0  0  0  0  0  0  0
   32.3384  -22.0361   33.7545 O   0  0  0  0  0  0  0  0  0  0  0  0
   36.4381  -18.9896   34.3294 N   0  0  0  0  0  0  0  0  0  0  0  0
   36.6376  -18.9491   33.3182 H   0  0  0  0  0  0  0  0  0  0  0  0
   37.3855  -19.7097   35.1467 C   0  0  0  0  0  0  0  0  0  0  0  0
   38.0966  -18.7837   36.0882 C   0  0  0  0  0  0  0  0  0  0  0  0
   39.4994  -19.2529   36.4200 C   0  0  0  0  0  0  0  0  0  0  0  0
   40.2830  -19.6026   35.2868 N   0  0  0  0  0  0  0  0  0  0  0  0
   39.5613  -19.6276   34.0632 C   0  0  0  0  0  0  0  0  0  0  0  0
   38.3365  -20.5011   34.2757 C   0  0  0  0  0  0  0  0  0  0  0  0
   41.6054  -19.0732   35.2378 C   0  0  0  0  0  0  0  0  0  0  0  0
   42.0230  -18.3341   36.4933 C   0  0  0  0  0  0  0  0  0  0  0  0
   41.7390  -18.1066   34.0922 C   0  0  0  0  0  0  0  0  0  0  0  0
   30.2357  -20.6516   34.8146 O   0  0  0  0  0  0  0  0  0  0  0  0
   29.3363  -20.2882   35.8469 C   0  0  0  0  0  0  0  0  0  0  0  0
   28.9189  -21.4671   36.6884 C   0  0  0  0  0  0  0  0  0  0  0  0
   28.2796  -22.5669   35.8951 C   0  0  0  0  0  0  0  0  0  0  0  0
   28.4343  -23.8139   36.6120 N   0  0  0  0  0  0  0  0  0  0  0  0
   28.6457  -24.9029   35.6958 C   0  0  0  0  0  0  0  0  0  0  0  0
   29.3779  -25.9564   36.4849 C   0  0  0  0  0  0  0  0  0  0  0  0
   30.1574  -25.1629   37.5049 C   0  0  0  0  0  0  0  0  0  0  0  0
   29.5901  -23.7680   37.4621 C   0  0  0  0  0  0  0  0  0  0  0  0
 24 25  1  0  0  0
 25  1  1  0  0  0
  1  2  2  0  0  0
  2  3  1  0  0  0
  3  4  2  0  0  0
  4 26  1  0  0  0
 26 28  1  0  0  0
 28 29  1  0  0  0
 29 30  1  0  0  0
 30 31  1  0  0  0
 31 32  1  0  0  0
 32 33  1  0  0  0
 31 34  1  0  0  0
 34 35  1  0  0  0
 34 36  1  0  0  0
  4  5  1  0  0  0
  5  6  2  0  0  0
  6  7  1  0  0  0
  7  8  2  0  0  0
  8  9  1  0  0  0
  9 10  2  0  0  0
 10 37  1  0  0  0
 37 38  1  0  0  0
 38 39  1  0  0  0
 39 40  1  0  0  0
 40 41  1  0  0  0
 41 42  1  0  0  0
 42 43  1  0  0  0
 43 44  1  0  0  0
 44 45  1  0  0  0
  6 11  1  0  0  0
 11 12  1  0  0  0
 12 13  1  0  0  0
 13 14  1  0  0  0
 14 15  1  0  0  0
 15 16  1  0  0  0
 16 17  1  0  0  0
 15 18  1  0  0  0
 18 19  1  0  0  0
 19 20  1  0  0  0
 20 21  1  0  0  0
 21 22  1  0  0  0
 22 23  1  0  0  0
 10  1  1  0  0  0
 45 41  1  0  0  0
 17 11  1  0  0  0
 23 18  1  0  0  0
  8  3  1  0  0  0
 33 28  1  0  0  0
 26 27  1  0  0  0
M  END
> <minimizedAffinity>
-7.33833

> <CNNscore>
0.2073697746

> <CNNaffinity>
7.0546178818

> <CNN_VS>
1.4629144669

> <CNNaffinity_variance>
0.2454249114

$$$$
[H]c1c(OC([H])([H])C([H])([H])C([H])([H])N2C([H])([H])C([H])([H])C([H])([H])C2([H])[H])c(OC([H])([H])[H])c([H])c2c(N([H])C3([H])C([H])([H])C([H])([H])N(C([H])(C([H])([H])[H])C([H])([H])[H])C([H])([H])C3([H])[H])nc(N3C([H])([H])C([H])([H])N(C4([H])C([H])([H])C([H])([H])C([H])([H])C([H])([H])C4([H])[H])C([H])([H])C([H])([H])C3([H])[H])nc12


 45 50  0  0  0  0  0  0  0  0999 V2000
   36.1650  -14.9827   36.4331 C   0  0  0  0  0  0  0  0  0  0  0  0
   36.7902  -16.2044   36.6627 C   0  0  0  0  0  0  0  0  0  0  0  0
   36.0713  -17.3767   36.5410 C   0  0  0  0  0  0  0  0  0  0  0  0
   36.6451  -18.6068   36.7694 C   0  0  0  0  0  0  0  0  0  0  0  0
   35.8941  -19.7259   36.6485 N   0  0  0  0  0  0  0  0  0  0  0  0
   34.5893  -19.6883   36.3087 C   0  0  0  0  0  0  0  0  0  0  0  0
   34.0542  -18.4737   36.0897 N   0  0  0  0  0  0  0  0  0  0  0  0
   34.7385  -17.3168   36.1915 C   0  0  0  0  0  0  0  0  0  0  0  0
   34.1335  -16.1094   35.9675 C   0  0  0  0  0  0  0  0  0  0  0  0
   34.8425  -14.9451   36.0877 C   0  0  0  0  0  0  0  0  0  0  0  0
   33.7985  -20.8602   36.2143 N   0  0  0  0  0  0  0  0  0  0  0  0
   34.4420  -22.0561   36.7430 C   0  0  0  0  0  0  0  0  0  0  0  0
   33.4132  -22.8535   37.5290 C   0  0  0  0  0  0  0  0  0  0  0  0
   32.4091  -23.4395   36.5644 C   0  0  0  0  0  0  0  0  0  0  0  0
   31.1881  -22.6663   36.6676 N   0  0  0  0  0  0  0  0  0  0  0  0
   31.4363  -21.2692   36.6074 C   0  0  0  0  0  0  0  0  0  0  0  0
   32.4820  -20.8251   35.6275 C   0  0  0  0  0  0  0  0  0  0  0  0
   30.2084  -23.0746   35.6864 C   0  0  0  0  0  0  0  0  0  0  0  0
   29.9713  -24.5734   35.7017 C   0  0  0  0  0  0  0  0  0  0  0  0
   29.0245  -24.8554   36.8552 C   0  0  0  0  0  0  0  0  0  0  0  0
   27.6447  -24.4654   36.3493 C   0  0  0  0  0  0  0  0  0  0  0  0
   27.7066  -23.1698   35.5679 C   0  0  0  0  0  0  0  0  0  0  0  0
   28.9270  -22.3540   35.9571 C   0  0  0  0  0  0  0  0  0  0  0  0
   37.8587  -13.6787   37.5420 C   0  0  0  0  0  0  0  0  0  0  0  0
   36.8550  -13.7793   36.5462 O   0  0  0  0  0  0  0  0  0  0  0  0
   38.0048  -18.7564   37.1171 N   0  0  0  0  0  0  0  0  0  0  0  0
   38.2817  -18.7424   38.1106 H   0  0  0  0  0  0  0  0  0  0  0  0
   39.0649  -18.9336   36.1533 C   0  0  0  0  0  0  0  0  0  0  0  0
   38.5198  -19.3856   34.8312 C   0  0  0  0  0  0  0  0  0  0  0  0
   39.5013  -20.2436   34.0577 C   0  0  0  0  0  0  0  0  0  0  0  0
   40.0755  -21.3019   34.8132 N   0  0  0  0  0  0  0  0  0  0  0  0
   39.7726  -21.2599   36.2007 C   0  0  0  0  0  0  0  0  0  0  0  0
   40.1217  -19.8680   36.7001 C   0  0  0  0  0  0  0  0  0  0  0  0
   40.0882  -22.5889   34.2009 C   0  0  0  0  0  0  0  0  0  0  0  0
   38.9950  -23.5177   34.6900 C   0  0  0  0  0  0  0  0  0  0  0  0
   41.4007  -23.2779   34.4603 C   0  0  0  0  0  0  0  0  0  0  0  0
   34.2128  -13.7066   35.8570 O   0  0  0  0  0  0  0  0  0  0  0  0
   33.4248  -13.1497   36.8941 C   0  0  0  0  0  0  0  0  0  0  0  0
   34.0246  -11.8873   37.4586 C   0  0  0  0  0  0  0  0  0  0  0  0
   32.9992  -10.8691   37.8580 C   0  0  0  0  0  0  0  0  0  0  0  0
   33.5394   -9.5460   37.6335 N   0  0  0  0  0  0  0  0  0  0  0  0
   34.6065   -9.5905   36.6695 C   0  0  0  0  0  0  0  0  0  0  0  0
   34.6651   -8.2101   36.0697 C   0  0  0  0  0  0  0  0  0  0  0  0
   33.2421   -7.7168   36.1666 C   0  0  0  0  0  0  0  0  0  0  0  0
   32.5359   -8.6761   37.0887 C   0  0  0  0  0  0  0  0  0  0  0  0
 24 25  1  0  0  0
 25  1  1  0  0  0
  1  2  2  0  0  0
  2  3  1  0  0  0
  3  4  2  0  0  0
  4 26  1  0  0  0
 26 28  1  0  0  0
 28 29  1  0  0  0
 29 30  1  0  0  0
 30 31  1  0  0  0
 31 32  1  0  0  0
 32 33  1  0  0  0
 31 34  1  0  0  0
 34 35  1  0  0  0
 34 36  1  0  0  0
  4  5  1  0  0  0
  5  6  2  0  0  0
  6  7  1  0  0  0
  7  8  2  0  0  0
  8  9  1  0  0  0
  9 10  2  0  0  0
 10 37  1  0  0  0
 37 38  1  0  0  0
 38 39  1  0  0  0
 39 40  1  0  0  0
 40 41  1  0  0  0
 41 42  1  0  0  0
 42 43  1  0  0  0
 43 44  1  0  0  0
 44 45  1  0  0  0
  6 11  1  0  0  0
 11 12  1  0  0  0
 12 13  1  0  0  0
 13 14  1  0  0  0
 14 15  1  0  0  0
 15 16  1  0  0  0
 16 17  1  0  0  0
 15 18  1  0  0  0
 18 19  1  0  0  0
 19 20  1  0  0  0
 20 21  1  0  0  0
 21 22  1  0  0  0
 22 23  1  0  0  0
 10  1  1  0  0  0
 45 41  1  0  0  0
 17 11  1  0  0  0
 23 18  1  0  0  0
  8  3  1  0  0  0
 33 28  1  0  0  0
 26 27  1  0  0  0
M  END
> <minimizedAffinity>
-7.73963

> <CNNscore>
0.2038930058

> <CNNaffinity>
6.7223634720

> <CNN_VS>
1.3706429005

> <CNNaffinity_variance>
0.1368549168

$$$$
[H]c1c(OC([H])([H])C([H])([H])C([H])([H])N2C([H])([H])C([H])([H])C([H])([H])C2([H])[H])c(OC([H])([H])[H])c([H])c2c(N([H])C3([H])C([H])([H])C([H])([H])N(C([H])(C([H])([H])[H])C([H])([H])[H])C([H])([H])C3([H])[H])nc(N3C([H])([H])C([H])([H])N(C4([H])C([H])([H])C([H])([H])C([H])([H])C([H])([H])C4([H])[H])C([H])([H])C([H])([H])C3([H])[H])nc12


 45 50  0  0  0  0  0  0  0  0999 V2000
   32.6632  -19.3511   35.9163 C   0  0  0  0  0  0  0  0  0  0  0  0
   33.6080  -18.3314   35.8574 C   0  0  0  0  0  0  0  0  0  0  0  0
   34.9506  -18.6326   35.9688 C   0  0  0  0  0  0  0  0  0  0  0  0
   35.9193  -17.6556   35.9274 C   0  0  0  0  0  0  0  0  0  0  0  0
   37.2214  -18.0016   36.0532 N   0  0  0  0  0  0  0  0  0  0  0  0
   37.6173  -19.2803   36.2194 C   0  0  0  0  0  0  0  0  0  0  0  0
   36.6506  -20.2150   36.2547 N   0  0  0  0  0  0  0  0  0  0  0  0
   35.3349  -19.9464   36.1370 C   0  0  0  0  0  0  0  0  0  0  0  0
   34.3970  -20.9419   36.1933 C   0  0  0  0  0  0  0  0  0  0  0  0
   33.0650  -20.6474   36.0838 C   0  0  0  0  0  0  0  0  0  0  0  0
   38.9794  -19.6350   36.3826 N   0  0  0  0  0  0  0  0  0  0  0  0
   39.2355  -21.0670   36.2965 C   0  0  0  0  0  0  0  0  0  0  0  0
   40.5044  -21.2854   35.4878 C   0  0  0  0  0  0  0  0  0  0  0  0
   41.6868  -20.8046   36.2958 C   0  0  0  0  0  0  0  0  0  0  0  0
   42.1197  -19.5376   35.7418 N   0  0  0  0  0  0  0  0  0  0  0  0
   41.0339  -18.6427   35.5484 C   0  0  0  0  0  0  0  0  0  0  0  0
   39.9867  -18.6318   36.6227 C   0  0  0  0  0  0  0  0  0  0  0  0
   43.1698  -18.9358   36.5319 C   0  0  0  0  0  0  0  0  0  0  0  0
   44.5396  -19.1290   35.9081 C   0  0  0  0  0  0  0  0  0  0  0  0
   44.6757  -18.0816   34.8168 C   0  0  0  0  0  0  0  0  0  0  0  0
   44.9951  -16.7834   35.5410 C   0  0  0  0  0  0  0  0  0  0  0  0
   44.1453  -16.6410   36.7862 C   0  0  0  0  0  0  0  0  0  0  0  0
   42.8815  -17.4771   36.6845 C   0  0  0  0  0  0  0  0  0  0  0  0
   30.6811  -19.2923   34.5502 C   0  0  0  0  0  0  0  0  0  0  0  0
   31.3006  -19.0883   35.8086 O   0  0  0  0  0  0  0  0  0  0  0  0
   35.6118  -16.2903   35.7445 N   0  0  0  0  0  0  0  0  0  0  0  0
   35.8177  -15.8378   34.8408 H   0  0  0  0  0  0  0  0  0  0  0  0
   35.0117  -15.4596   36.7613 C   0  0  0  0  0  0  0  0  0  0  0  0
   33.7517  -14.8198   36.2587 C   0  0  0  0  0  0  0  0  0  0  0  0
   33.4801  -13.4769   36.9073 C   0  0  0  0  0  0  0  0  0  0  0  0
   34.5917  -12.5910   36.9065 N   0  0  0  0  0  0  0  0  0  0  0  0
   35.8076  -13.1803   36.4673 C   0  0  0  0  0  0  0  0  0  0  0  0
   36.0149  -14.4503   37.2752 C   0  0  0  0  0  0  0  0  0  0  0  0
   34.3410  -11.2532   36.4835 C   0  0  0  0  0  0  0  0  0  0  0  0
   35.5623  -10.5353   35.9449 C   0  0  0  0  0  0  0  0  0  0  0  0
   33.8172  -10.4321   37.6307 C   0  0  0  0  0  0  0  0  0  0  0  0
   32.1058  -21.6769   36.1440 O   0  0  0  0  0  0  0  0  0  0  0  0
   31.5872  -22.0392   37.4115 C   0  0  0  0  0  0  0  0  0  0  0  0
   32.6392  -22.6255   38.3180 C   0  0  0  0  0  0  0  0  0  0  0  0
   32.0852  -23.1552   39.6064 C   0  0  0  0  0  0  0  0  0  0  0  0
   32.5521  -22.3244   40.6949 N   0  0  0  0  0  0  0  0  0  0  0  0
   32.8107  -23.1199   41.8655 C   0  0  0  0  0  0  0  0  0  0  0  0
   33.8179  -22.3391   42.6683 C   0  0  0  0  0  0  0  0  0  0  0  0
   34.5905  -21.5709   41.6240 C   0  0  0  0  0  0  0  0  0  0  0  0
   33.7940  -21.6919   40.3511 C   0  0  0  0  0  0  0  0  0  0  0  0
 24 25  1  0  0  0
 25  1  1  0  0  0
  1  2  2  0  0  0
  2  3  1  0  0  0
  3  4  2  0  0  0
  4 26  1  0  0  0
 26 28  1  0  0  0
 28 29  1  0  0  0
 29 30  1  0  0  0
 30 31  1  0  0  0
 31 32  1  0  0  0
 32 33  1  0  0  0
 31 34  1  0  0  0
 34 35  1  0  0  0
 34 36  1  0  0  0
  4  5  1  0  0  0
  5  6  2  0  0  0
  6  7  1  0  0  0
  7  8  2  0  0  0
  8  9  1  0  0  0
  9 10  2  0  0  0
 10 37  1  0  0  0
 37 38  1  0  0  0
 38 39  1  0  0  0
 39 40  1  0  0  0
 40 41  1  0  0  0
 41 42  1  0  0  0
 42 43  1  0  0  0
 43 44  1  0  0  0
 44 45  1  0  0  0
  6 11  1  0  0  0
 11 12  1  0  0  0
 12 13  1  0  0  0
 13 14  1  0  0  0
 14 15  1  0  0  0
 15 16  1  0  0  0
 16 17  1  0  0  0
 15 18  1  0  0  0
 18 19  1  0  0  0
 19 20  1  0  0  0
 20 21  1  0  0  0
 21 22  1  0  0  0
 22 23  1  0  0  0
 10  1  1  0  0  0
 45 41  1  0  0  0
 17 11  1  0  0  0
 23 18  1  0  0  0
  8  3  1  0  0  0
 33 28  1  0  0  0
 26 27  1  0  0  0
M  END
> <minimizedAffinity>
-6.44149

> <CNNscore>
0.2011863738

> <CNNaffinity>
6.6038041115

> <CNN_VS>
1.3285953999

> <CNNaffinity_variance>
0.0831923112

$$$$
[H]c1c(OC([H])([H])C([H])([H])C([H])([H])N2C([H])([H])C([H])([H])C([H])([H])C2([H])[H])c(OC([H])([H])[H])c([H])c2c(N([H])C3([H])C([H])([H])C([H])([H])N(C([H])(C([H])([H])[H])C([H])([H])[H])C([H])([H])C3([H])[H])nc(N3C([H])([H])C([H])([H])N(C4([H])C([H])([H])C([H])([H])C([H])([H])C([H])([H])C4([H])[H])C([H])([H])C([H])([H])C3([H])[H])nc12


 45 50  0  0  0  0  0  0  0  0999 V2000
   36.3281  -15.2437   36.3779 C   0  0  0  0  0  0  0  0  0  0  0  0
   36.8727  -16.5073   36.5850 C   0  0  0  0  0  0  0  0  0  0  0  0
   36.0764  -17.6275   36.4549 C   0  0  0  0  0  0  0  0  0  0  0  0
   36.5692  -18.8960   36.6612 C   0  0  0  0  0  0  0  0  0  0  0  0
   35.7445  -19.9610   36.5330 N   0  0  0  0  0  0  0  0  0  0  0  0
   34.4420  -19.8321   36.2067 C   0  0  0  0  0  0  0  0  0  0  0  0
   33.9868  -18.5818   36.0092 N   0  0  0  0  0  0  0  0  0  0  0  0
   34.7475  -17.4743   36.1195 C   0  0  0  0  0  0  0  0  0  0  0  0
   34.2220  -16.2265   35.9177 C   0  0  0  0  0  0  0  0  0  0  0  0
   35.0079  -15.1136   36.0462 C   0  0  0  0  0  0  0  0  0  0  0  0
   33.5742  -20.9476   36.1046 N   0  0  0  0  0  0  0  0  0  0  0  0
   34.1248  -22.1814   36.6508 C   0  0  0  0  0  0  0  0  0  0  0  0
   33.0304  -22.9013   37.4228 C   0  0  0  0  0  0  0  0  0  0  0  0
   32.0050  -23.4231   36.4439 C   0  0  0  0  0  0  0  0  0  0  0  0
   30.8384  -22.5672   36.5217 N   0  0  0  0  0  0  0  0  0  0  0  0
   31.1831  -21.1909   36.4585 C   0  0  0  0  0  0  0  0  0  0  0  0
   32.2734  -20.8259   35.4947 C   0  0  0  0  0  0  0  0  0  0  0  0
   29.8499  -22.9136   35.5257 C   0  0  0  0  0  0  0  0  0  0  0  0
   29.8722  -24.3922   35.1851 C   0  0  0  0  0  0  0  0  0  0  0  0
   29.1051  -25.1064   36.2843 C   0  0  0  0  0  0  0  0  0  0  0  0
   27.6361  -24.8761   35.9664 C   0  0  0  0  0  0  0  0  0  0  0  0
   27.4008  -23.4468   35.5251 C   0  0  0  0  0  0  0  0  0  0  0  0
   28.4982  -22.5291   36.0351 C   0  0  0  0  0  0  0  0  0  0  0  0
   37.6314  -13.7786   37.7756 C   0  0  0  0  0  0  0  0  0  0  0  0
   37.0976  -14.0904   36.5000 O   0  0  0  0  0  0  0  0  0  0  0  0
   37.9191  -19.1403   36.9934 N   0  0  0  0  0  0  0  0  0  0  0  0
   38.1732  -19.3553   37.9696 H   0  0  0  0  0  0  0  0  0  0  0  0
   38.9992  -19.1106   36.0360 C   0  0  0  0  0  0  0  0  0  0  0  0
   38.7572  -20.0849   34.9217 C   0  0  0  0  0  0  0  0  0  0  0  0
   40.0436  -20.6282   34.3318 C   0  0  0  0  0  0  0  0  0  0  0  0
   40.9736  -21.1055   35.2951 N   0  0  0  0  0  0  0  0  0  0  0  0
   40.6165  -20.8232   36.6410 C   0  0  0  0  0  0  0  0  0  0  0  0
   40.3242  -19.3350   36.7311 C   0  0  0  0  0  0  0  0  0  0  0  0
   41.5549  -22.3821   35.0427 C   0  0  0  0  0  0  0  0  0  0  0  0
   42.9747  -22.3222   34.5158 C   0  0  0  0  0  0  0  0  0  0  0  0
   40.7393  -23.1359   34.0274 C   0  0  0  0  0  0  0  0  0  0  0  0
   34.4599  -13.8330   35.8383 O   0  0  0  0  0  0  0  0  0  0  0  0
   33.2184  -13.5261   36.4477 C   0  0  0  0  0  0  0  0  0  0  0  0
   33.3840  -12.9092   37.8130 C   0  0  0  0  0  0  0  0  0  0  0  0
   32.6560  -11.6079   37.9693 C   0  0  0  0  0  0  0  0  0  0  0  0
   31.2651  -11.8036   37.6227 N   0  0  0  0  0  0  0  0  0  0  0  0
   30.5580  -12.4399   38.7021 C   0  0  0  0  0  0  0  0  0  0  0  0
   29.1145  -12.0482   38.5239 C   0  0  0  0  0  0  0  0  0  0  0  0
   29.1898  -10.6969   37.8561 C   0  0  0  0  0  0  0  0  0  0  0  0
   30.6173  -10.5420   37.4005 C   0  0  0  0  0  0  0  0  0  0  0  0
 24 25  1  0  0  0
 25  1  1  0  0  0
  1  2  2  0  0  0
  2  3  1  0  0  0
  3  4  2  0  0  0
  4 26  1  0  0  0
 26 28  1  0  0  0
 28 29  1  0  0  0
 29 30  1  0  0  0
 30 31  1  0  0  0
 31 32  1  0  0  0
 32 33  1  0  0  0
 31 34  1  0  0  0
 34 35  1  0  0  0
 34 36  1  0  0  0
  4  5  1  0  0  0
  5  6  2  0  0  0
  6  7  1  0  0  0
  7  8  2  0  0  0
  8  9  1  0  0  0
  9 10  2  0  0  0
 10 37  1  0  0  0
 37 38  1  0  0  0
 38 39  1  0  0  0
 39 40  1  0  0  0
 40 41  1  0  0  0
 41 42  1  0  0  0
 42 43  1  0  0  0
 43 44  1  0  0  0
 44 45  1  0  0  0
  6 11  1  0  0  0
 11 12  1  0  0  0
 12 13  1  0  0  0
 13 14  1  0  0  0
 14 15  1  0  0  0
 15 16  1  0  0  0
 16 17  1  0  0  0
 15 18  1  0  0  0
 18 19  1  0  0  0
 19 20  1  0  0  0
 20 21  1  0  0  0
 21 22  1  0  0  0
 22 23  1  0  0  0
 10  1  1  0  0  0
 45 41  1  0  0  0
 17 11  1  0  0  0
 23 18  1  0  0  0
  8  3  1  0  0  0
 33 28  1  0  0  0
 26 27  1  0  0  0
M  END
> <minimizedAffinity>
-7.78109

> <CNNscore>
0.1817147881

> <CNNaffinity>
6.6701622009

> <CNN_VS>
1.2120671272

> <CNNaffinity_variance>
0.1283103675

$$$$
[H]c1c(-c2nc3c([H])c(OC([H])([H])C([H])([H])C([H])([H])N4C([H])([H])C([H])([H])C([H])([H])C([H])([H])C4([H])[H])c(OC([H])([H])[H])c([H])c3c(N([H])C3([H])C([H])([H])C([H])([H])N(C([H])([H])[H])C([H])([H])C3([H])[H])c2[H])oc(C([H])([H])C([H])([H])[H])c1[H]


 38 42  0  0  0  0  0  0  0  0999 V2000
   33.8495  -18.1221   35.5462 C   0  0  0  0  0  0  0  0  0  0  0  0
   35.1738  -18.4860   35.6320 C   0  0  0  0  0  0  0  0  0  0  0  0
   36.1371  -17.5040   35.9367 C   0  0  0  0  0  0  0  0  0  0  0  0
   35.7312  -16.2109   36.1407 C   0  0  0  0  0  0  0  0  0  0  0  0
   36.6232  -15.2188   36.4355 C   0  0  0  0  0  0  0  0  0  0  0  0
   36.1477  -13.9112   36.6308 C   0  0  0  0  0  0  0  0  0  0  0  0
   34.8194  -13.5742   36.5398 C   0  0  0  0  0  0  0  0  0  0  0  0
   33.9284  -14.6077   36.2370 C   0  0  0  0  0  0  0  0  0  0  0  0
   34.3775  -15.8916   36.0432 C   0  0  0  0  0  0  0  0  0  0  0  0
   33.5051  -16.8558   35.7522 N   0  0  0  0  0  0  0  0  0  0  0  0
   30.9380  -20.1959   35.1712 C   0  0  0  0  0  0  0  0  0  0  0  0
   31.7956  -20.8554   34.3204 C   0  0  0  0  0  0  0  0  0  0  0  0
   32.9886  -20.1683   34.3507 C   0  0  0  0  0  0  0  0  0  0  0  0
   32.8154  -19.0939   35.2348 C   0  0  0  0  0  0  0  0  0  0  0  0
   31.5979  -19.1831   35.6668 O   0  0  0  0  0  0  0  0  0  0  0  0
   29.4232  -22.0477   35.7296 C   0  0  0  0  0  0  0  0  0  0  0  0
   29.5093  -20.5792   35.4675 C   0  0  0  0  0  0  0  0  0  0  0  0
   37.4967  -17.8958   36.0544 N   0  0  0  0  0  0  0  0  0  0  0  0
   38.1258  -17.3462   36.6709 H   0  0  0  0  0  0  0  0  0  0  0  0
   38.0753  -19.0357   35.3640 C   0  0  0  0  0  0  0  0  0  0  0  0
   39.4026  -19.3442   36.0459 C   0  0  0  0  0  0  0  0  0  0  0  0
   40.2916  -20.1835   35.1611 C   0  0  0  0  0  0  0  0  0  0  0  0
   40.4371  -19.6882   33.8300 N   0  0  0  0  0  0  0  0  0  0  0  0
   41.1991  -18.4761   33.8092 C   0  0  0  0  0  0  0  0  0  0  0  0
   39.1521  -19.5680   33.1689 C   0  0  0  0  0  0  0  0  0  0  0  0
   38.3333  -18.5817   33.9370 C   0  0  0  0  0  0  0  0  0  0  0  0
   37.0541  -12.9039   36.9305 O   0  0  0  0  0  0  0  0  0  0  0  0
   38.2895  -13.2148   37.4984 C   0  0  0  0  0  0  0  0  0  0  0  0
   34.4200  -12.2634   36.7442 O   0  0  0  0  0  0  0  0  0  0  0  0
   33.7675  -11.9719   37.9576 C   0  0  0  0  0  0  0  0  0  0  0  0
   32.4762  -11.2161   37.7606 C   0  0  0  0  0  0  0  0  0  0  0  0
   31.4504  -12.0091   37.0200 C   0  0  0  0  0  0  0  0  0  0  0  0
   30.1788  -12.1035   37.6604 N   0  0  0  0  0  0  0  0  0  0  0  0
   30.3814  -12.5321   39.0388 C   0  0  0  0  0  0  0  0  0  0  0  0
   29.1435  -12.2955   39.8620 C   0  0  0  0  0  0  0  0  0  0  0  0
   27.8947  -12.2525   38.9978 C   0  0  0  0  0  0  0  0  0  0  0  0
   28.0077  -11.0537   38.0915 C   0  0  0  0  0  0  0  0  0  0  0  0
   29.4492  -10.8598   37.7347 C   0  0  0  0  0  0  0  0  0  0  0  0
 16 17  1  0  0  0
 17 11  1  0  0  0
 11 12  2  0  0  0
 12 13  1  0  0  0
 13 14  2  0  0  0
 14 15  1  0  0  0
 14  1  1  0  0  0
  1  2  2  0  0  0
  2  3  1  0  0  0
  3 18  1  0  0  0
 18 20  1  0  0  0
 20 21  1  0  0  0
 21 22  1  0  0  0
 22 23  1  0  0  0
 23 24  1  0  0  0
 23 25  1  0  0  0
 25 26  1  0  0  0
  3  4  2  0  0  0
  4  5  1  0  0  0
  5  6  2  0  0  0
  6 27  1  0  0  0
 27 28  1  0  0  0
  6  7  1  0  0  0
  7 29  1  0  0  0
 29 30  1  0  0  0
 30 31  1  0  0  0
 31 32  1  0  0  0
 32 33  1  0  0  0
 33 34  1  0  0  0
 34 35  1  0  0  0
 35 36  1  0  0  0
 36 37  1  0  0  0
 37 38  1  0  0  0
  7  8  2  0  0  0
  8  9  1  0  0  0
  9 10  2  0  0  0
 15 11  1  0  0  0
 10  1  1  0  0  0
 26 20  1  0  0  0
  9  4  1  0  0  0
 38 33  1  0  0  0
 18 19  1  0  0  0
M  END
> <minimizedAffinity>
-9.03321

> <CNNscore>
0.7265722156

> <CNNaffinity>
7.4843492508

> <CNN_VS>
5.4379200935

> <CNNaffinity_variance>
0.0908923000

$$$$
[H]c1c(-c2nc3c([H])c(OC([H])([H])C([H])([H])C([H])([H])N4C([H])([H])C([H])([H])C([H])([H])C([H])([H])C4([H])[H])c(OC([H])([H])[H])c([H])c3c(N([H])C3([H])C([H])([H])C([H])([H])N(C([H])([H])[H])C([H])([H])C3([H])[H])c2[H])oc(C([H])([H])C([H])([H])[H])c1[H]


 38 42  0  0  0  0  0  0  0  0999 V2000
   33.9897  -18.3901   35.6040 C   0  0  0  0  0  0  0  0  0  0  0  0
   35.2636  -18.7529   35.9768 C   0  0  0  0  0  0  0  0  0  0  0  0
   36.1693  -17.7546   36.3871 C   0  0  0  0  0  0  0  0  0  0  0  0
   35.7588  -16.4470   36.4052 C   0  0  0  0  0  0  0  0  0  0  0  0
   36.5966  -15.4391   36.7909 C   0  0  0  0  0  0  0  0  0  0  0  0
   36.1199  -14.1175   36.7856 C   0  0  0  0  0  0  0  0  0  0  0  0
   34.8425  -13.7819   36.4089 C   0  0  0  0  0  0  0  0  0  0  0  0
   34.0063  -14.8317   36.0189 C   0  0  0  0  0  0  0  0  0  0  0  0
   34.4573  -16.1295   36.0186 C   0  0  0  0  0  0  0  0  0  0  0  0
   33.6385  -17.1094   35.6382 N   0  0  0  0  0  0  0  0  0  0  0  0
   32.0013  -21.2543   34.7316 C   0  0  0  0  0  0  0  0  0  0  0  0
   31.1443  -20.2545   34.3311 C   0  0  0  0  0  0  0  0  0  0  0  0
   31.7741  -19.0608   34.6045 C   0  0  0  0  0  0  0  0  0  0  0  0
   33.0161  -19.3784   35.1725 C   0  0  0  0  0  0  0  0  0  0  0  0
   33.0683  -20.6717   35.2103 O   0  0  0  0  0  0  0  0  0  0  0  0
   32.3015  -23.4290   35.8342 C   0  0  0  0  0  0  0  0  0  0  0  0
   31.7462  -22.7378   34.6316 C   0  0  0  0  0  0  0  0  0  0  0  0
   37.4709  -18.1428   36.8003 N   0  0  0  0  0  0  0  0  0  0  0  0
   38.0199  -17.4982   37.4011 H   0  0  0  0  0  0  0  0  0  0  0  0
   38.0947  -19.4041   36.4384 C   0  0  0  0  0  0  0  0  0  0  0  0
   38.1564  -20.2511   37.7036 C   0  0  0  0  0  0  0  0  0  0  0  0
   39.1675  -21.3634   37.5701 C   0  0  0  0  0  0  0  0  0  0  0  0
   40.4497  -20.9431   37.1033 N   0  0  0  0  0  0  0  0  0  0  0  0
   41.1272  -20.1566   38.0895 C   0  0  0  0  0  0  0  0  0  0  0  0
   40.3520  -20.2855   35.8147 C   0  0  0  0  0  0  0  0  0  0  0  0
   39.5056  -19.0660   35.9868 C   0  0  0  0  0  0  0  0  0  0  0  0
   36.9713  -13.0941   37.1778 O   0  0  0  0  0  0  0  0  0  0  0  0
   38.2333  -13.3873   37.6943 C   0  0  0  0  0  0  0  0  0  0  0  0
   34.4387  -12.4567   36.4273 O   0  0  0  0  0  0  0  0  0  0  0  0
   33.9820  -11.9407   37.6554 C   0  0  0  0  0  0  0  0  0  0  0  0
   32.6395  -12.4978   38.0612 C   0  0  0  0  0  0  0  0  0  0  0  0
   31.5261  -12.0105   37.1937 C   0  0  0  0  0  0  0  0  0  0  0  0
   30.2171  -12.1799   37.7355 N   0  0  0  0  0  0  0  0  0  0  0  0
   30.3384  -12.6333   39.1155 C   0  0  0  0  0  0  0  0  0  0  0  0
   29.0336  -12.4752   39.8492 C   0  0  0  0  0  0  0  0  0  0  0  0
   27.8509  -12.4684   38.8956 C   0  0  0  0  0  0  0  0  0  0  0  0
   27.9722  -11.2432   38.0265 C   0  0  0  0  0  0  0  0  0  0  0  0
   29.4250  -10.9737   37.7822 C   0  0  0  0  0  0  0  0  0  0  0  0
 16 17  1  0  0  0
 17 11  1  0  0  0
 11 12  2  0  0  0
 12 13  1  0  0  0
 13 14  2  0  0  0
 14 15  1  0  0  0
 14  1  1  0  0  0
  1  2  2  0  0  0
  2  3  1  0  0  0
  3 18  1  0  0  0
 18 20  1  0  0  0
 20 21  1  0  0  0
 21 22  1  0  0  0
 22 23  1  0  0  0
 23 24  1  0  0  0
 23 25  1  0  0  0
 25 26  1  0  0  0
  3  4  2  0  0  0
  4  5  1  0  0  0
  5  6  2  0  0  0
  6 27  1  0  0  0
 27 28  1  0  0  0
  6  7  1  0  0  0
  7 29  1  0  0  0
 29 30  1  0  0  0
 30 31  1  0  0  0
 31 32  1  0  0  0
 32 33  1  0  0  0
 33 34  1  0  0  0
 34 35  1  0  0  0
 35 36  1  0  0  0
 36 37  1  0  0  0
 37 38  1  0  0  0
  7  8  2  0  0  0
  8  9  1  0  0  0
  9 10  2  0  0  0
 15 11  1  0  0  0
 10  1  1  0  0  0
 26 20  1  0  0  0
  9  4  1  0  0  0
 38 33  1  0  0  0
 18 19  1  0  0  0
M  END
> <minimizedAffinity>
-8.31508

> <CNNscore>
0.4875434935

> <CNNaffinity>
7.0073499680

> <CNN_VS>
3.4163877964

> <CNNaffinity_variance>
0.0990950316

$$$$
[H]c1c(-c2nc3c([H])c(OC([H])([H])C([H])([H])C([H])([H])N4C([H])([H])C([H])([H])C([H])([H])C([H])([H])C4([H])[H])c(OC([H])([H])[H])c([H])c3c(N([H])C3([H])C([H])([H])C([H])([H])N(C([H])([H])[H])C([H])([H])C3([H])[H])c2[H])oc(C([H])([H])C([H])([H])[H])c1[H]


 38 42  0  0  0  0  0  0  0  0999 V2000
   36.4511  -17.1621   37.0765 C   0  0  0  0  0  0  0  0  0  0  0  0
   37.3990  -17.6520   36.2076 C   0  0  0  0  0  0  0  0  0  0  0  0
   37.5595  -19.0462   36.0818 C   0  0  0  0  0  0  0  0  0  0  0  0
   36.7672  -19.8797   36.8276 C   0  0  0  0  0  0  0  0  0  0  0  0
   36.8830  -21.2387   36.7471 C   0  0  0  0  0  0  0  0  0  0  0  0
   36.0451  -22.0417   37.5390 C   0  0  0  0  0  0  0  0  0  0  0  0
   35.1060  -21.5270   38.3989 C   0  0  0  0  0  0  0  0  0  0  0  0
   35.0083  -20.1342   38.4619 C   0  0  0  0  0  0  0  0  0  0  0  0
   35.8203  -19.3350   37.6941 C   0  0  0  0  0  0  0  0  0  0  0  0
   35.7071  -18.0101   37.7779 N   0  0  0  0  0  0  0  0  0  0  0  0
   35.3400  -13.7566   37.3698 C   0  0  0  0  0  0  0  0  0  0  0  0
   36.6798  -13.5798   37.6306 C   0  0  0  0  0  0  0  0  0  0  0  0
   37.2648  -14.8241   37.5551 C   0  0  0  0  0  0  0  0  0  0  0  0
   36.2440  -15.7340   37.2451 C   0  0  0  0  0  0  0  0  0  0  0  0
   35.1593  -15.0326   37.1551 O   0  0  0  0  0  0  0  0  0  0  0  0
   33.1101  -13.0917   38.1577 C   0  0  0  0  0  0  0  0  0  0  0  0
   34.2890  -12.6746   37.3402 C   0  0  0  0  0  0  0  0  0  0  0  0
   38.5179  -19.5417   35.1591 N   0  0  0  0  0  0  0  0  0  0  0  0
   38.3039  -20.4094   34.6304 H   0  0  0  0  0  0  0  0  0  0  0  0
   39.7963  -18.9036   34.8957 C   0  0  0  0  0  0  0  0  0  0  0  0
   40.3369  -19.5028   33.6031 C   0  0  0  0  0  0  0  0  0  0  0  0
   41.8220  -19.2704   33.4700 C   0  0  0  0  0  0  0  0  0  0  0  0
   42.5817  -19.6283   34.6247 N   0  0  0  0  0  0  0  0  0  0  0  0
   42.6039  -21.0480   34.8099 C   0  0  0  0  0  0  0  0  0  0  0  0
   42.1304  -18.9049   35.7976 C   0  0  0  0  0  0  0  0  0  0  0  0
   40.7075  -19.2856   36.0501 C   0  0  0  0  0  0  0  0  0  0  0  0
   36.1630  -23.4221   37.4567 O   0  0  0  0  0  0  0  0  0  0  0  0
   37.2086  -24.0792   38.1050 C   0  0  0  0  0  0  0  0  0  0  0  0
   34.3126  -22.3783   39.1509 O   0  0  0  0  0  0  0  0  0  0  0  0
   32.9176  -22.2545   39.0039 C   0  0  0  0  0  0  0  0  0  0  0  0
   32.4428  -22.6011   37.6140 C   0  0  0  0  0  0  0  0  0  0  0  0
   31.7642  -21.4580   36.9339 C   0  0  0  0  0  0  0  0  0  0  0  0
   32.5902  -20.7018   36.0499 N   0  0  0  0  0  0  0  0  0  0  0  0
   32.5422  -21.3143   34.7281 C   0  0  0  0  0  0  0  0  0  0  0  0
   33.0783  -20.3749   33.6813 C   0  0  0  0  0  0  0  0  0  0  0  0
   34.0296  -19.3523   34.2792 C   0  0  0  0  0  0  0  0  0  0  0  0
   33.2352  -18.4874   35.2239 C   0  0  0  0  0  0  0  0  0  0  0  0
   32.1775  -19.3303   35.8670 C   0  0  0  0  0  0  0  0  0  0  0  0
 16 17  1  0  0  0
 17 11  1  0  0  0
 11 12  2  0  0  0
 12 13  1  0  0  0
 13 14  2  0  0  0
 14 15  1  0  0  0
 14  1  1  0  0  0
  1  2  2  0  0  0
  2  3  1  0  0  0
  3 18  1  0  0  0
 18 20  1  0  0  0
 20 21  1  0  0  0
 21 22  1  0  0  0
 22 23  1  0  0  0
 23 24  1  0  0  0
 23 25  1  0  0  0
 25 26  1  0  0  0
  3  4  2  0  0  0
  4  5  1  0  0  0
  5  6  2  0  0  0
  6 27  1  0  0  0
 27 28  1  0  0  0
  6  7  1  0  0  0
  7 29  1  0  0  0
 29 30  1  0  0  0
 30 31  1  0  0  0
 31 32  1  0  0  0
 32 33  1  0  0  0
 33 34  1  0  0  0
 34 35  1  0  0  0
 35 36  1  0  0  0
 36 37  1  0  0  0
 37 38  1  0  0  0
  7  8  2  0  0  0
  8  9  1  0  0  0
  9 10  2  0  0  0
 15 11  1  0  0  0
 10  1  1  0  0  0
 26 20  1  0  0  0
  9  4  1  0  0  0
 38 33  1  0  0  0
 18 19  1  0  0  0
M  END
> <minimizedAffinity>
-6.51895

> <CNNscore>
0.4065565169

> <CNNaffinity>
6.4618248940

> <CNN_VS>
2.6270971298

> <CNNaffinity_variance>
0.2899105251

$$$$
[H]c1c(-c2nc3c([H])c(OC([H])([H])C([H])([H])C([H])([H])N4C([H])([H])C([H])([H])C([H])([H])C([H])([H])C4([H])[H])c(OC([H])([H])[H])c([H])c3c(N([H])C3([H])C([H])([H])C([H])([H])N(C([H])([H])[H])C([H])([H])C3([H])[H])c2[H])oc(C([H])([H])C([H])([H])[H])c1[H]


 38 42  0  0  0  0  0  0  0  0999 V2000
   36.3650  -18.0921   36.8983 C   0  0  0  0  0  0  0  0  0  0  0  0
   37.6136  -18.6323   36.6920 C   0  0  0  0  0  0  0  0  0  0  0  0
   37.7824  -20.0278   36.7897 C   0  0  0  0  0  0  0  0  0  0  0  0
   36.6987  -20.8124   37.0872 C   0  0  0  0  0  0  0  0  0  0  0  0
   36.8066  -22.1700   37.1972 C   0  0  0  0  0  0  0  0  0  0  0  0
   35.6608  -22.9214   37.5077 C   0  0  0  0  0  0  0  0  0  0  0  0
   34.4249  -22.3571   37.7087 C   0  0  0  0  0  0  0  0  0  0  0  0
   34.3423  -20.9669   37.5903 C   0  0  0  0  0  0  0  0  0  0  0  0
   35.4535  -20.2178   37.2872 C   0  0  0  0  0  0  0  0  0  0  0  0
   35.3452  -18.8938   37.1843 N   0  0  0  0  0  0  0  0  0  0  0  0
   36.3337  -14.4993   36.9942 C   0  0  0  0  0  0  0  0  0  0  0  0
   35.1613  -14.7167   36.3067 C   0  0  0  0  0  0  0  0  0  0  0  0
   35.0228  -16.0811   36.1828 C   0  0  0  0  0  0  0  0  0  0  0  0
   36.1351  -16.6603   36.8101 C   0  0  0  0  0  0  0  0  0  0  0  0
   36.8457  -15.6729   37.2539 O   0  0  0  0  0  0  0  0  0  0  0  0
   38.3919  -13.2624   37.5133 C   0  0  0  0  0  0  0  0  0  0  0  0
   36.9084  -13.1562   37.3706 C   0  0  0  0  0  0  0  0  0  0  0  0
   39.0678  -20.5781   36.5435 N   0  0  0  0  0  0  0  0  0  0  0  0
   39.3747  -21.4029   37.0944 H   0  0  0  0  0  0  0  0  0  0  0  0
   39.9959  -20.0605   35.5527 C   0  0  0  0  0  0  0  0  0  0  0  0
   39.4294  -20.4131   34.1828 C   0  0  0  0  0  0  0  0  0  0  0  0
   40.4932  -20.3427   33.1147 C   0  0  0  0  0  0  0  0  0  0  0  0
   41.6954  -21.0447   33.4314 N   0  0  0  0  0  0  0  0  0  0  0  0
   41.4838  -22.4609   33.4284 C   0  0  0  0  0  0  0  0  0  0  0  0
   42.2820  -20.5561   34.6642 C   0  0  0  0  0  0  0  0  0  0  0  0
   41.3035  -20.8046   35.7660 C   0  0  0  0  0  0  0  0  0  0  0  0
   35.7709  -24.3003   37.6191 O   0  0  0  0  0  0  0  0  0  0  0  0
   36.4482  -25.0334   36.6449 C   0  0  0  0  0  0  0  0  0  0  0  0
   33.3366  -23.1589   38.0126 O   0  0  0  0  0  0  0  0  0  0  0  0
   32.0795  -22.5304   38.1001 C   0  0  0  0  0  0  0  0  0  0  0  0
   31.1633  -22.8929   36.9570 C   0  0  0  0  0  0  0  0  0  0  0  0
   30.5932  -21.6950   36.2718 C   0  0  0  0  0  0  0  0  0  0  0  0
   31.5529  -20.8256   35.6727 N   0  0  0  0  0  0  0  0  0  0  0  0
   32.1578  -21.5104   34.5370 C   0  0  0  0  0  0  0  0  0  0  0  0
   32.8902  -20.5379   33.6517 C   0  0  0  0  0  0  0  0  0  0  0  0
   33.3125  -19.2934   34.4140 C   0  0  0  0  0  0  0  0  0  0  0  0
   32.0597  -18.5757   34.8462 C   0  0  0  0  0  0  0  0  0  0  0  0
   31.0062  -19.5960   35.1493 C   0  0  0  0  0  0  0  0  0  0  0  0
 16 17  1  0  0  0
 17 11  1  0  0  0
 11 12  2  0  0  0
 12 13  1  0  0  0
 13 14  2  0  0  0
 14 15  1  0  0  0
 14  1  1  0  0  0
  1  2  2  0  0  0
  2  3  1  0  0  0
  3 18  1  0  0  0
 18 20  1  0  0  0
 20 21  1  0  0  0
 21 22  1  0  0  0
 22 23  1  0  0  0
 23 24  1  0  0  0
 23 25  1  0  0  0
 25 26  1  0  0  0
  3  4  2  0  0  0
  4  5  1  0  0  0
  5  6  2  0  0  0
  6 27  1  0  0  0
 27 28  1  0  0  0
  6  7  1  0  0  0
  7 29  1  0  0  0
 29 30  1  0  0  0
 30 31  1  0  0  0
 31 32  1  0  0  0
 32 33  1  0  0  0
 33 34  1  0  0  0
 34 35  1  0  0  0
 35 36  1  0  0  0
 36 37  1  0  0  0
 37 38  1  0  0  0
  7  8  2  0  0  0
  8  9  1  0  0  0
  9 10  2  0  0  0
 15 11  1  0  0  0
 10  1  1  0  0  0
 26 20  1  0  0  0
  9  4  1  0  0  0
 38 33  1  0  0  0
 18 19  1  0  0  0
M  END
> <minimizedAffinity>
-6.24407

> <CNNscore>
0.3171398342

> <CNNaffinity>
6.1645941734

> <CNN_VS>
1.9550384283

> <CNNaffinity_variance>
0.3902846873

$$$$
[H]c1c(-c2nc3c([H])c(OC([H])([H])C([H])([H])C([H])([H])N4C([H])([H])C([H])([H])C([H])([H])C([H])([H])C4([H])[H])c(OC([H])([H])[H])c([H])c3c(N([H])C3([H])C([H])([H])C([H])([H])N(C([H])([H])[H])C([H])([H])C3([H])[H])c2[H])oc(C([H])([H])C([H])([H])[H])c1[H]


 38 42  0  0  0  0  0  0  0  0999 V2000
   35.8014  -18.0334   36.7729 C   0  0  0  0  0  0  0  0  0  0  0  0
   37.1580  -18.2420   36.8713 C   0  0  0  0  0  0  0  0  0  0  0  0
   37.6424  -19.5587   37.0009 C   0  0  0  0  0  0  0  0  0  0  0  0
   36.7505  -20.5991   37.0252 C   0  0  0  0  0  0  0  0  0  0  0  0
   37.1654  -21.8947   37.1523 C   0  0  0  0  0  0  0  0  0  0  0  0
   36.2037  -22.9188   37.1743 C   0  0  0  0  0  0  0  0  0  0  0  0
   34.8544  -22.6835   37.0739 C   0  0  0  0  0  0  0  0  0  0  0  0
   34.4571  -21.3497   36.9449 C   0  0  0  0  0  0  0  0  0  0  0  0
   35.3850  -20.3367   36.9217 C   0  0  0  0  0  0  0  0  0  0  0  0
   34.9765  -19.0742   36.8013 N   0  0  0  0  0  0  0  0  0  0  0  0
   34.8724  -14.5622   36.8510 C   0  0  0  0  0  0  0  0  0  0  0  0
   33.9405  -15.0248   35.9499 C   0  0  0  0  0  0  0  0  0  0  0  0
   34.1668  -16.3754   35.8052 C   0  0  0  0  0  0  0  0  0  0  0  0
   35.2482  -16.6968   36.6378 C   0  0  0  0  0  0  0  0  0  0  0  0
   35.5981  -15.5883   37.2083 O   0  0  0  0  0  0  0  0  0  0  0  0
   35.3174  -12.2445   36.1689 C   0  0  0  0  0  0  0  0  0  0  0  0
   35.0186  -13.1385   37.3281 C   0  0  0  0  0  0  0  0  0  0  0  0
   39.0454  -19.7655   37.0695 N   0  0  0  0  0  0  0  0  0  0  0  0
   39.4055  -20.6047   37.5635 H   0  0  0  0  0  0  0  0  0  0  0  0
   40.0272  -18.8710   36.4806 C   0  0  0  0  0  0  0  0  0  0  0  0
   40.2758  -19.3552   35.0574 C   0  0  0  0  0  0  0  0  0  0  0  0
   41.5734  -18.8111   34.5118 C   0  0  0  0  0  0  0  0  0  0  0  0
   42.6964  -18.9843   35.3763 N   0  0  0  0  0  0  0  0  0  0  0  0
   43.0675  -20.3639   35.4726 C   0  0  0  0  0  0  0  0  0  0  0  0
   42.4699  -18.3610   36.6658 C   0  0  0  0  0  0  0  0  0  0  0  0
   41.2965  -19.0352   37.2997 C   0  0  0  0  0  0  0  0  0  0  0  0
   36.6257  -24.2346   37.3032 O   0  0  0  0  0  0  0  0  0  0  0  0
   37.2195  -24.8921   36.2260 C   0  0  0  0  0  0  0  0  0  0  0  0
   33.9609  -23.7421   37.1031 O   0  0  0  0  0  0  0  0  0  0  0  0
   32.7108  -23.5456   36.4853 C   0  0  0  0  0  0  0  0  0  0  0  0
   31.5671  -24.1241   37.2819 C   0  0  0  0  0  0  0  0  0  0  0  0
   31.0800  -23.1991   38.3481 C   0  0  0  0  0  0  0  0  0  0  0  0
   31.2341  -23.6784   39.6831 N   0  0  0  0  0  0  0  0  0  0  0  0
   31.5132  -25.1082   39.6361 C   0  0  0  0  0  0  0  0  0  0  0  0
   32.0465  -25.5948   40.9570 C   0  0  0  0  0  0  0  0  0  0  0  0
   31.6167  -24.6936   42.1020 C   0  0  0  0  0  0  0  0  0  0  0  0
   32.2538  -23.3450   41.8856 C   0  0  0  0  0  0  0  0  0  0  0  0
   32.3290  -23.0841   40.4128 C   0  0  0  0  0  0  0  0  0  0  0  0
 16 17  1  0  0  0
 17 11  1  0  0  0
 11 12  2  0  0  0
 12 13  1  0  0  0
 13 14  2  0  0  0
 14 15  1  0  0  0
 14  1  1  0  0  0
  1  2  2  0  0  0
  2  3  1  0  0  0
  3 18  1  0  0  0
 18 20  1  0  0  0
 20 21  1  0  0  0
 21 22  1  0  0  0
 22 23  1  0  0  0
 23 24  1  0  0  0
 23 25  1  0  0  0
 25 26  1  0  0  0
  3  4  2  0  0  0
  4  5  1  0  0  0
  5  6  2  0  0  0
  6 27  1  0  0  0
 27 28  1  0  0  0
  6  7  1  0  0  0
  7 29  1  0  0  0
 29 30  1  0  0  0
 30 31  1  0  0  0
 31 32  1  0  0  0
 32 33  1  0  0  0
 33 34  1  0  0  0
 34 35  1  0  0  0
 35 36  1  0  0  0
 36 37  1  0  0  0
 37 38  1  0  0  0
  7  8  2  0  0  0
  8  9  1  0  0  0
  9 10  2  0  0  0
 15 11  1  0  0  0
 10  1  1  0  0  0
 26 20  1  0  0  0
  9  4  1  0  0  0
 38 33  1  0  0  0
 18 19  1  0  0  0
M  END
> <minimizedAffinity>
-5.10193

> <CNNscore>
0.2892804444

> <CNNaffinity>
6.0007166862

> <CNN_VS>
1.7358900309

> <CNNaffinity_variance>
0.1782919019

$$$$
[H]c1c(-c2nc3c([H])c(OC([H])([H])C([H])([H])C([H])([H])N4C([H])([H])C([H])([H])C([H])([H])C([H])([H])C4([H])[H])c(OC([H])([H])[H])c([H])c3c(N([H])C3([H])C([H])([H])C([H])([H])N(C([H])([H])[H])C([H])([H])C3([H])[H])c2[H])oc(C([H])([H])C([H])([H])[H])c1[H]


 38 42  0  0  0  0  0  0  0  0999 V2000
   36.5657  -17.1034   36.9545 C   0  0  0  0  0  0  0  0  0  0  0  0
   35.5059  -17.9660   37.1169 C   0  0  0  0  0  0  0  0  0  0  0  0
   35.7231  -19.3522   36.9886 C   0  0  0  0  0  0  0  0  0  0  0  0
   36.9847  -19.8071   36.7057 C   0  0  0  0  0  0  0  0  0  0  0  0
   37.2506  -21.1401   36.5673 C   0  0  0  0  0  0  0  0  0  0  0  0
   38.5632  -21.5460   36.2737 C   0  0  0  0  0  0  0  0  0  0  0  0
   39.6041  -20.6639   36.1167 C   0  0  0  0  0  0  0  0  0  0  0  0
   39.3049  -19.3066   36.2634 C   0  0  0  0  0  0  0  0  0  0  0  0
   38.0264  -18.8934   36.5505 C   0  0  0  0  0  0  0  0  0  0  0  0
   37.7702  -17.5924   36.6810 N   0  0  0  0  0  0  0  0  0  0  0  0
   35.5488  -13.6605   37.1291 C   0  0  0  0  0  0  0  0  0  0  0  0
   36.8909  -13.5130   37.3964 C   0  0  0  0  0  0  0  0  0  0  0  0
   37.4412  -14.7750   37.3658 C   0  0  0  0  0  0  0  0  0  0  0  0
   36.3977  -15.6655   37.0757 C   0  0  0  0  0  0  0  0  0  0  0  0
   35.3340  -14.9372   36.9535 O   0  0  0  0  0  0  0  0  0  0  0  0
   33.1662  -13.1290   36.8533 C   0  0  0  0  0  0  0  0  0  0  0  0
   34.5292  -12.5511   37.0555 C   0  0  0  0  0  0  0  0  0  0  0  0
   34.6298  -20.2353   37.1897 N   0  0  0  0  0  0  0  0  0  0  0  0
   34.2847  -20.3950   38.1559 H   0  0  0  0  0  0  0  0  0  0  0  0
   33.9461  -20.9376   36.1173 C   0  0  0  0  0  0  0  0  0  0  0  0
   33.6827  -19.9203   35.0138 C   0  0  0  0  0  0  0  0  0  0  0  0
   32.6034  -20.3983   34.0736 C   0  0  0  0  0  0  0  0  0  0  0  0
   31.4160  -20.8558   34.7212 N   0  0  0  0  0  0  0  0  0  0  0  0
   30.7057  -19.7700   35.3267 C   0  0  0  0  0  0  0  0  0  0  0  0
   31.7020  -21.9379   35.6431 C   0  0  0  0  0  0  0  0  0  0  0  0
   32.6228  -21.4107   36.6954 C   0  0  0  0  0  0  0  0  0  0  0  0
   38.8328  -22.9002   36.1335 O   0  0  0  0  0  0  0  0  0  0  0  0
   38.6471  -23.5312   34.9036 C   0  0  0  0  0  0  0  0  0  0  0  0
   40.8749  -21.1340   35.8273 O   0  0  0  0  0  0  0  0  0  0  0  0
   41.7451  -20.2590   35.1489 C   0  0  0  0  0  0  0  0  0  0  0  0
   43.0215  -19.9967   35.9100 C   0  0  0  0  0  0  0  0  0  0  0  0
   43.1855  -20.8970   37.0899 C   0  0  0  0  0  0  0  0  0  0  0  0
   43.1781  -20.2423   38.3576 N   0  0  0  0  0  0  0  0  0  0  0  0
   43.4913  -18.8330   38.1565 C   0  0  0  0  0  0  0  0  0  0  0  0
   43.1395  -18.0254   39.3772 C   0  0  0  0  0  0  0  0  0  0  0  0
   43.1278  -18.8815   40.6322 C   0  0  0  0  0  0  0  0  0  0  0  0
   42.0177  -19.8904   40.4863 C   0  0  0  0  0  0  0  0  0  0  0  0
   41.9074  -20.2726   39.0425 C   0  0  0  0  0  0  0  0  0  0  0  0
 16 17  1  0  0  0
 17 11  1  0  0  0
 11 12  2  0  0  0
 12 13  1  0  0  0
 13 14  2  0  0  0
 14 15  1  0  0  0
 14  1  1  0  0  0
  1  2  2  0  0  0
  2  3  1  0  0  0
  3 18  1  0  0  0
 18 20  1  0  0  0
 20 21  1  0  0  0
 21 22  1  0  0  0
 22 23  1  0  0  0
 23 24  1  0  0  0
 23 25  1  0  0  0
 25 26  1  0  0  0
  3  4  2  0  0  0
  4  5  1  0  0  0
  5  6  2  0  0  0
  6 27  1  0  0  0
 27 28  1  0  0  0
  6  7  1  0  0  0
  7 29  1  0  0  0
 29 30  1  0  0  0
 30 31  1  0  0  0
 31 32  1  0  0  0
 32 33  1  0  0  0
 33 34  1  0  0  0
 34 35  1  0  0  0
 35 36  1  0  0  0
 36 37  1  0  0  0
 37 38  1  0  0  0
  7  8  2  0  0  0
  8  9  1  0  0  0
  9 10  2  0  0  0
 15 11  1  0  0  0
 10  1  1  0  0  0
 26 20  1  0  0  0
  9  4  1  0  0  0
 38 33  1  0  0  0
 18 19  1  0  0  0
M  END
> <minimizedAffinity>
-6.37486

> <CNNscore>
0.2806141973

> <CNNaffinity>
6.3377056122

> <CNN_VS>
1.7784501314

> <CNNaffinity_variance>
0.1361230314

$$$$
[H]c1c(-c2nc3c([H])c(OC([H])([H])C([H])([H])C([H])([H])N4C([H])([H])C([H])([H])C([H])([H])C([H])([H])C4([H])[H])c(OC([H])([H])[H])c([H])c3c(N([H])C3([H])C([H])([H])C([H])([H])N(C([H])([H])[H])C([H])([H])C3([H])[H])c2[H])oc(C([H])([H])C([H])([H])[H])c1[H]


 38 42  0  0  0  0  0  0  0  0999 V2000
   34.6811  -20.4919   36.9128 C   0  0  0  0  0  0  0  0  0  0  0  0
   35.0400  -19.1772   37.1030 C   0  0  0  0  0  0  0  0  0  0  0  0
   36.4069  -18.8389   37.1514 C   0  0  0  0  0  0  0  0  0  0  0  0
   37.3451  -19.8277   37.0074 C   0  0  0  0  0  0  0  0  0  0  0  0
   38.6835  -19.5561   37.0496 C   0  0  0  0  0  0  0  0  0  0  0  0
   39.5979  -20.6121   36.8992 C   0  0  0  0  0  0  0  0  0  0  0  0
   39.2131  -21.9169   36.7101 C   0  0  0  0  0  0  0  0  0  0  0  0
   37.8386  -22.1671   36.6709 C   0  0  0  0  0  0  0  0  0  0  0  0
   36.9315  -21.1455   36.8164 C   0  0  0  0  0  0  0  0  0  0  0  0
   35.6272  -21.4147   36.7784 N   0  0  0  0  0  0  0  0  0  0  0  0
   31.1618  -21.0007   36.3896 C   0  0  0  0  0  0  0  0  0  0  0  0
   31.4186  -22.0553   37.2359 C   0  0  0  0  0  0  0  0  0  0  0  0
   32.7608  -22.0012   37.5389 C   0  0  0  0  0  0  0  0  0  0  0  0
   33.2867  -20.8958   36.8551 C   0  0  0  0  0  0  0  0  0  0  0  0
   32.2927  -20.3709   36.2124 O   0  0  0  0  0  0  0  0  0  0  0  0
   29.9698  -19.4642   34.8883 C   0  0  0  0  0  0  0  0  0  0  0  0
   29.8241  -20.6487   35.7873 C   0  0  0  0  0  0  0  0  0  0  0  0
   36.7666  -17.4754   37.3159 N   0  0  0  0  0  0  0  0  0  0  0  0
   37.7090  -17.2460   37.6864 H   0  0  0  0  0  0  0  0  0  0  0  0
   35.8934  -16.3609   36.9900 C   0  0  0  0  0  0  0  0  0  0  0  0
   36.4090  -15.7544   35.6907 C   0  0  0  0  0  0  0  0  0  0  0  0
   35.8881  -14.3515   35.4957 C   0  0  0  0  0  0  0  0  0  0  0  0
   36.0536  -13.4973   36.6277 N   0  0  0  0  0  0  0  0  0  0  0  0
   37.4343  -13.1840   36.8420 C   0  0  0  0  0  0  0  0  0  0  0  0
   35.4019  -14.0453   37.8014 C   0  0  0  0  0  0  0  0  0  0  0  0
   36.0522  -15.3534   38.1165 C   0  0  0  0  0  0  0  0  0  0  0  0
   40.9572  -20.3356   36.9419 O   0  0  0  0  0  0  0  0  0  0  0  0
   41.5612  -19.9568   38.1407 C   0  0  0  0  0  0  0  0  0  0  0  0
   40.1695  -22.9094   36.5692 O   0  0  0  0  0  0  0  0  0  0  0  0
   40.1179  -23.6906   35.3988 C   0  0  0  0  0  0  0  0  0  0  0  0
   40.4655  -22.9072   34.1567 C   0  0  0  0  0  0  0  0  0  0  0  0
   41.9148  -22.5554   34.0827 C   0  0  0  0  0  0  0  0  0  0  0  0
   42.5820  -22.9813   32.8956 N   0  0  0  0  0  0  0  0  0  0  0  0
   43.7951  -23.6958   33.2731 C   0  0  0  0  0  0  0  0  0  0  0  0
   44.3401  -24.4803   32.1097 C   0  0  0  0  0  0  0  0  0  0  0  0
   43.8916  -23.8973   30.7804 C   0  0  0  0  0  0  0  0  0  0  0  0
   42.3942  -24.0475   30.6979 C   0  0  0  0  0  0  0  0  0  0  0  0
   41.8232  -23.8943   32.0739 C   0  0  0  0  0  0  0  0  0  0  0  0
 16 17  1  0  0  0
 17 11  1  0  0  0
 11 12  2  0  0  0
 12 13  1  0  0  0
 13 14  2  0  0  0
 14 15  1  0  0  0
 14  1  1  0  0  0
  1  2  2  0  0  0
  2  3  1  0  0  0
  3 18  1  0  0  0
 18 20  1  0  0  0
 20 21  1  0  0  0
 21 22  1  0  0  0
 22 23  1  0  0  0
 23 24  1  0  0  0
 23 25  1  0  0  0
 25 26  1  0  0  0
  3  4  2  0  0  0
  4  5  1  0  0  0
  5  6  2  0  0  0
  6 27  1  0  0  0
 27 28  1  0  0  0
  6  7  1  0  0  0
  7 29  1  0  0  0
 29 30  1  0  0  0
 30 31  1  0  0  0
 31 32  1  0  0  0
 32 33  1  0  0  0
 33 34  1  0  0  0
 34 35  1  0  0  0
 35 36  1  0  0  0
 36 37  1  0  0  0
 37 38  1  0  0  0
  7  8  2  0  0  0
  8  9  1  0  0  0
  9 10  2  0  0  0
 15 11  1  0  0  0
 10  1  1  0  0  0
 26 20  1  0  0  0
  9  4  1  0  0  0
 38 33  1  0  0  0
 18 19  1  0  0  0
M  END
> <minimizedAffinity>
-4.78035

> <CNNscore>
0.2616784871

> <CNNaffinity>
5.8210897446

> <CNN_VS>
1.5232539177

> <CNNaffinity_variance>
0.0205913484

$$$$
[H]c1c(-c2nc3c([H])c(OC([H])([H])C([H])([H])C([H])([H])N4C([H])([H])C([H])([H])C([H])([H])C([H])([H])C4([H])[H])c(OC([H])([H])[H])c([H])c3c(N([H])C3([H])C([H])([H])C([H])([H])N(C([H])([H])[H])C([H])([H])C3([H])[H])c2[H])oc(C([H])([H])C([H])([H])[H])c1[H]


 38 42  0  0  0  0  0  0  0  0999 V2000
   36.5269  -17.4437   37.1122 C   0  0  0  0  0  0  0  0  0  0  0  0
   37.6643  -17.8787   36.4715 C   0  0  0  0  0  0  0  0  0  0  0  0
   38.0016  -19.2457   36.5242 C   0  0  0  0  0  0  0  0  0  0  0  0
   37.1882  -20.1082   37.2118 C   0  0  0  0  0  0  0  0  0  0  0  0
   37.4697  -21.4425   37.2977 C   0  0  0  0  0  0  0  0  0  0  0  0
   36.6000  -22.2770   38.0197 C   0  0  0  0  0  0  0  0  0  0  0  0
   35.4700  -21.8172   38.6504 C   0  0  0  0  0  0  0  0  0  0  0  0
   35.2055  -20.4488   38.5469 C   0  0  0  0  0  0  0  0  0  0  0  0
   36.0460  -19.6193   37.8445 C   0  0  0  0  0  0  0  0  0  0  0  0
   35.7702  -18.3181   37.7661 N   0  0  0  0  0  0  0  0  0  0  0  0
   35.0045  -14.1989   36.8446 C   0  0  0  0  0  0  0  0  0  0  0  0
   36.2432  -13.8285   37.3166 C   0  0  0  0  0  0  0  0  0  0  0  0
   36.9683  -14.9881   37.4768 C   0  0  0  0  0  0  0  0  0  0  0  0
   36.1326  -16.0456   37.0902 C   0  0  0  0  0  0  0  0  0  0  0  0
   35.0120  -15.5009   36.7375 O   0  0  0  0  0  0  0  0  0  0  0  0
   33.9821  -12.0169   37.3235 C   0  0  0  0  0  0  0  0  0  0  0  0
   33.8628  -13.2689   36.5168 C   0  0  0  0  0  0  0  0  0  0  0  0
   39.1596  -19.6894   35.8330 N   0  0  0  0  0  0  0  0  0  0  0  0
   39.0761  -20.4878   35.1745 H   0  0  0  0  0  0  0  0  0  0  0  0
   40.4739  -19.0885   35.9825 C   0  0  0  0  0  0  0  0  0  0  0  0
   41.3932  -19.7685   34.9753 C   0  0  0  0  0  0  0  0  0  0  0  0
   42.8450  -19.5688   35.3358 C   0  0  0  0  0  0  0  0  0  0  0  0
   43.1637  -19.8738   36.6937 N   0  0  0  0  0  0  0  0  0  0  0  0
   43.0739  -21.2809   36.9428 C   0  0  0  0  0  0  0  0  0  0  0  0
   42.3727  -19.0781   37.6123 C   0  0  0  0  0  0  0  0  0  0  0  0
   40.9347  -19.4201   37.3920 C   0  0  0  0  0  0  0  0  0  0  0  0
   36.8863  -23.6322   38.1064 O   0  0  0  0  0  0  0  0  0  0  0  0
   38.2030  -24.0649   38.2627 C   0  0  0  0  0  0  0  0  0  0  0  0
   34.6564  -22.6970   39.3460 O   0  0  0  0  0  0  0  0  0  0  0  0
   33.4502  -22.1857   39.8625 C   0  0  0  0  0  0  0  0  0  0  0  0
   33.4353  -22.1332   41.3706 C   0  0  0  0  0  0  0  0  0  0  0  0
   33.0661  -23.4406   41.9902 C   0  0  0  0  0  0  0  0  0  0  0  0
   31.7862  -23.4729   42.6199 N   0  0  0  0  0  0  0  0  0  0  0  0
   31.4877  -22.1437   43.1384 C   0  0  0  0  0  0  0  0  0  0  0  0
   30.0265  -22.0148   43.4761 C   0  0  0  0  0  0  0  0  0  0  0  0
   29.3944  -23.3672   43.7585 C   0  0  0  0  0  0  0  0  0  0  0  0
   29.4411  -24.1684   42.4829 C   0  0  0  0  0  0  0  0  0  0  0  0
   30.6919  -23.8109   41.7408 C   0  0  0  0  0  0  0  0  0  0  0  0
 16 17  1  0  0  0
 17 11  1  0  0  0
 11 12  2  0  0  0
 12 13  1  0  0  0
 13 14  2  0  0  0
 14 15  1  0  0  0
 14  1  1  0  0  0
  1  2  2  0  0  0
  2  3  1  0  0  0
  3 18  1  0  0  0
 18 20  1  0  0  0
 20 21  1  0  0  0
 21 22  1  0  0  0
 22 23  1  0  0  0
 23 24  1  0  0  0
 23 25  1  0  0  0
 25 26  1  0  0  0
  3  4  2  0  0  0
  4  5  1  0  0  0
  5  6  2  0  0  0
  6 27  1  0  0  0
 27 28  1  0  0  0
  6  7  1  0  0  0
  7 29  1  0  0  0
 29 30  1  0  0  0
 30 31  1  0  0  0
 31 32  1  0  0  0
 32 33  1  0  0  0
 33 34  1  0  0  0
 34 35  1  0  0  0
 35 36  1  0  0  0
 36 37  1  0  0  0
 37 38  1  0  0  0
  7  8  2  0  0  0
  8  9  1  0  0  0
  9 10  2  0  0  0
 15 11  1  0  0  0
 10  1  1  0  0  0
 26 20  1  0  0  0
  9  4  1  0  0  0
 38 33  1  0  0  0
 18 19  1  0  0  0
M  END
> <minimizedAffinity>
-5.19301

> <CNNscore>
0.2499805093

> <CNNaffinity>
5.8131656647

> <CNN_VS>
1.4531781673

> <CNNaffinity_variance>
0.1299609542

$$$$
[H]c1c(-c2nc3c([H])c(OC([H])([H])C([H])([H])C([H])([H])N4C([H])([H])C([H])([H])C([H])([H])C([H])([H])C4([H])[H])c(OC([H])([H])[H])c([H])c3c(N([H])C3([H])C([H])([H])C([H])([H])N(C([H])([H])[H])C([H])([H])C3([H])[H])c2[H])oc(C([H])([H])C([H])([H])[H])c1[H]


 38 42  0  0  0  0  0  0  0  0999 V2000
   35.2448  -15.8221   36.3202 C   0  0  0  0  0  0  0  0  0  0  0  0
   34.3195  -16.6824   35.7751 C   0  0  0  0  0  0  0  0  0  0  0  0
   34.6891  -18.0186   35.5239 C   0  0  0  0  0  0  0  0  0  0  0  0
   35.9609  -18.4284   35.8291 C   0  0  0  0  0  0  0  0  0  0  0  0
   36.3731  -19.7113   35.6031 C   0  0  0  0  0  0  0  0  0  0  0  0
   37.6903  -20.0717   35.9334 C   0  0  0  0  0  0  0  0  0  0  0  0
   38.5949  -19.1930   36.4772 C   0  0  0  0  0  0  0  0  0  0  0  0
   38.1476  -17.8874   36.6981 C   0  0  0  0  0  0  0  0  0  0  0  0
   36.8626  -17.5191   36.3805 C   0  0  0  0  0  0  0  0  0  0  0  0
   36.4654  -16.2662   36.5988 N   0  0  0  0  0  0  0  0  0  0  0  0
   33.9363  -12.6234   37.3074 C   0  0  0  0  0  0  0  0  0  0  0  0
   35.0599  -12.2079   36.6298 C   0  0  0  0  0  0  0  0  0  0  0  0
   35.6908  -13.3446   36.1758 C   0  0  0  0  0  0  0  0  0  0  0  0
   34.9169  -14.4345   36.5993 C   0  0  0  0  0  0  0  0  0  0  0  0
   33.9176  -13.9285   37.2490 O   0  0  0  0  0  0  0  0  0  0  0  0
   33.3045  -10.2994   37.7926 C   0  0  0  0  0  0  0  0  0  0  0  0
   32.9254  -11.7318   37.9849 C   0  0  0  0  0  0  0  0  0  0  0  0
   33.7175  -18.9063   34.9913 N   0  0  0  0  0  0  0  0  0  0  0  0
   33.8374  -19.2589   34.0221 H   0  0  0  0  0  0  0  0  0  0  0  0
   32.5508  -19.3670   35.7244 C   0  0  0  0  0  0  0  0  0  0  0  0
   32.9759  -20.6009   36.5109 C   0  0  0  0  0  0  0  0  0  0  0  0
   31.7811  -21.4194   36.9349 C   0  0  0  0  0  0  0  0  0  0  0  0
   30.8574  -21.7044   35.8841 N   0  0  0  0  0  0  0  0  0  0  0  0
   31.4177  -22.6204   34.9368 C   0  0  0  0  0  0  0  0  0  0  0  0
   30.3581  -20.4863   35.2764 C   0  0  0  0  0  0  0  0  0  0  0  0
   31.5216  -19.7632   34.6791 C   0  0  0  0  0  0  0  0  0  0  0  0
   38.1084  -21.3750   35.7039 O   0  0  0  0  0  0  0  0  0  0  0  0
   38.8193  -21.6928   34.5467 C   0  0  0  0  0  0  0  0  0  0  0  0
   39.8792  -19.6165   36.7787 O   0  0  0  0  0  0  0  0  0  0  0  0
   40.9447  -18.9011   36.1992 C   0  0  0  0  0  0  0  0  0  0  0  0
   42.0140  -18.5327   37.1983 C   0  0  0  0  0  0  0  0  0  0  0  0
   42.7938  -19.7148   37.6717 C   0  0  0  0  0  0  0  0  0  0  0  0
   42.7578  -19.9401   39.0801 N   0  0  0  0  0  0  0  0  0  0  0  0
   43.2716  -18.7549   39.7554 C   0  0  0  0  0  0  0  0  0  0  0  0
   42.9201  -18.7762   41.2189 C   0  0  0  0  0  0  0  0  0  0  0  0
   42.6814  -20.1911   41.7181 C   0  0  0  0  0  0  0  0  0  0  0  0
   41.4656  -20.7271   41.0069 C   0  0  0  0  0  0  0  0  0  0  0  0
   41.4374  -20.1633   39.6198 C   0  0  0  0  0  0  0  0  0  0  0  0
 16 17  1  0  0  0
 17 11  1  0  0  0
 11 12  2  0  0  0
 12 13  1  0  0  0
 13 14  2  0  0  0
 14 15  1  0  0  0
 14  1  1  0  0  0
  1  2  2  0  0  0
  2  3  1  0  0  0
  3 18  1  0  0  0
 18 20  1  0  0  0
 20 21  1  0  0  0
 21 22  1  0  0  0
 22 23  1  0  0  0
 23 24  1  0  0  0
 23 25  1  0  0  0
 25 26  1  0  0  0
  3  4  2  0  0  0
  4  5  1  0  0  0
  5  6  2  0  0  0
  6 27  1  0  0  0
 27 28  1  0  0  0
  6  7  1  0  0  0
  7 29  1  0  0  0
 29 30  1  0  0  0
 30 31  1  0  0  0
 31 32  1  0  0  0
 32 33  1  0  0  0
 33 34  1  0  0  0
 34 35  1  0  0  0
 35 36  1  0  0  0
 36 37  1  0  0  0
 37 38  1  0  0  0
  7  8  2  0  0  0
  8  9  1  0  0  0
  9 10  2  0  0  0
 15 11  1  0  0  0
 10  1  1  0  0  0
 26 20  1  0  0  0
  9  4  1  0  0  0
 38 33  1  0  0  0
 18 19  1  0  0  0
M  END
> <minimizedAffinity>
-7.06048

> <CNNscore>
0.2437136620

> <CNNaffinity>
6.2498426437

> <CNN_VS>
1.5231720209

> <CNNaffinity_variance>
0.1496278048

$$$$
[H]c1c(OC([H])([H])C([H])([H])C([H])([H])N2C([H])([H])C([H])([H])C([H])([H])C2([H])[H])c(OC([H])([H])[H])c([H])c2c(N([H])C3([H])C([H])([H])C([H])([H])N(C4([H])C([H])([H])C4([H])[H])C([H])([H])C3([H])[H])nc(N3C([H])([H])C([H])([H])C(F)(F)C([H])([H])C3([H])[H])nc12


 40 45  0  0  0  0  0  0  0  0999 V2000
   35.9711  -14.1172   36.6716 C   0  0  0  0  0  0  0  0  0  0  0  0
   36.4767  -15.2652   36.0521 C   0  0  0  0  0  0  0  0  0  0  0  0
   35.6465  -16.2677   35.6356 C   0  0  0  0  0  0  0  0  0  0  0  0
   36.1159  -17.4133   35.0206 C   0  0  0  0  0  0  0  0  0  0  0  0
   35.1766  -18.3259   34.6592 N   0  0  0  0  0  0  0  0  0  0  0  0
   33.8656  -18.1672   34.8662 C   0  0  0  0  0  0  0  0  0  0  0  0
   33.4567  -17.0524   35.4598 N   0  0  0  0  0  0  0  0  0  0  0  0
   34.2753  -16.0969   35.8546 C   0  0  0  0  0  0  0  0  0  0  0  0
   33.7518  -14.9849   36.4582 C   0  0  0  0  0  0  0  0  0  0  0  0
   34.6009  -13.9842   36.8719 C   0  0  0  0  0  0  0  0  0  0  0  0
   32.8975  -19.1352   34.4804 N   0  0  0  0  0  0  0  0  0  0  0  0
   31.5360  -18.7596   34.1480 C   0  0  0  0  0  0  0  0  0  0  0  0
   30.5134  -19.5727   34.9066 C   0  0  0  0  0  0  0  0  0  0  0  0
   31.0616  -20.8819   35.4024 C   0  0  0  0  0  0  0  0  0  0  0  0
   31.6141  -20.7825   36.6498 F   0  0  0  0  0  0  0  0  0  0  0  0
   30.0250  -21.8160   35.4914 F   0  0  0  0  0  0  0  0  0  0  0  0
   32.0538  -21.4381   34.4075 C   0  0  0  0  0  0  0  0  0  0  0  0
   33.2602  -20.5333   34.4118 C   0  0  0  0  0  0  0  0  0  0  0  0
   38.0817  -13.5094   37.6473 C   0  0  0  0  0  0  0  0  0  0  0  0
   36.8499  -13.1251   37.0779 O   0  0  0  0  0  0  0  0  0  0  0  0
   37.4942  -17.6353   34.7769 N   0  0  0  0  0  0  0  0  0  0  0  0
   38.0212  -16.9851   34.1674 H   0  0  0  0  0  0  0  0  0  0  0  0
   38.2297  -18.7353   35.3357 C   0  0  0  0  0  0  0  0  0  0  0  0
   38.2496  -19.9775   34.4801 C   0  0  0  0  0  0  0  0  0  0  0  0
   39.3650  -20.8493   35.0143 C   0  0  0  0  0  0  0  0  0  0  0  0
   39.7786  -20.5540   36.3148 N   0  0  0  0  0  0  0  0  0  0  0  0
   38.8082  -20.1221   37.2493 C   0  0  0  0  0  0  0  0  0  0  0  0
   37.7857  -19.1433   36.7159 C   0  0  0  0  0  0  0  0  0  0  0  0
   41.1101  -20.1589   36.5501 C   0  0  0  0  0  0  0  0  0  0  0  0
   41.7208  -19.2701   35.4720 C   0  0  0  0  0  0  0  0  0  0  0  0
   41.5833  -18.8215   36.8778 C   0  0  0  0  0  0  0  0  0  0  0  0
   34.1872  -12.8198   37.4910 O   0  0  0  0  0  0  0  0  0  0  0  0
   32.9883  -12.8054   38.2030 C   0  0  0  0  0  0  0  0  0  0  0  0
   32.0736  -11.6892   37.7757 C   0  0  0  0  0  0  0  0  0  0  0  0
   30.6219  -12.0137   38.0163 C   0  0  0  0  0  0  0  0  0  0  0  0
   29.7123  -11.1195   37.3717 N   0  0  0  0  0  0  0  0  0  0  0  0
   28.3425  -11.2594   37.7761 C   0  0  0  0  0  0  0  0  0  0  0  0
   28.2604  -10.5625   39.1104 C   0  0  0  0  0  0  0  0  0  0  0  0
   29.1800   -9.3776   38.9004 C   0  0  0  0  0  0  0  0  0  0  0  0
   30.0847   -9.7641   37.7766 C   0  0  0  0  0  0  0  0  0  0  0  0
 19 20  1  0  0  0
 20  1  1  0  0  0
  1  2  2  0  0  0
  2  3  1  0  0  0
  3  4  2  0  0  0
  4 21  1  0  0  0
 21 23  1  0  0  0
 23 24  1  0  0  0
 24 25  1  0  0  0
 25 26  1  0  0  0
 26 27  1  0  0  0
 27 28  1  0  0  0
 26 29  1  0  0  0
 29 30  1  0  0  0
 30 31  1  0  0  0
  4  5  1  0  0  0
  5  6  2  0  0  0
  6  7  1  0  0  0
  7  8  2  0  0  0
  8  9  1  0  0  0
  9 10  2  0  0  0
 10 32  1  0  0  0
 32 33  1  0  0  0
 33 34  1  0  0  0
 34 35  1  0  0  0
 35 36  1  0  0  0
 36 37  1  0  0  0
 37 38  1  0  0  0
 38 39  1  0  0  0
 39 40  1  0  0  0
  6 11  1  0  0  0
 11 12  1  0  0  0
 12 13  1  0  0  0
 13 14  1  0  0  0
 14 15  1  0  0  0
 14 16  1  0  0  0
 14 17  1  0  0  0
 17 18  1  0  0  0
 10  1  1  0  0  0
 40 36  1  0  0  0
 18 11  1  0  0  0
  8  3  1  0  0  0
 28 23  1  0  0  0
 31 29  1  0  0  0
 21 22  1  0  0  0
M  END
> <minimizedAffinity>
-8.76849

> <CNNscore>
0.7263812423

> <CNNaffinity>
7.5013084412

> <CNN_VS>
5.4488096237

> <CNNaffinity_variance>
0.0676698685

$$$$
[H]c1c(OC([H])([H])C([H])([H])C([H])([H])N2C([H])([H])C([H])([H])C([H])([H])C2([H])[H])c(OC([H])([H])[H])c([H])c2c(N([H])C3([H])C([H])([H])C([H])([H])N(C4([H])C([H])([H])C4([H])[H])C([H])([H])C3([H])[H])nc(N3C([H])([H])C([H])([H])C(F)(F)C([H])([H])C3([H])[H])nc12


 40 45  0  0  0  0  0  0  0  0999 V2000
   36.0000  -14.1225   36.6875 C   0  0  0  0  0  0  0  0  0  0  0  0
   36.5071  -15.3074   36.1432 C   0  0  0  0  0  0  0  0  0  0  0  0
   35.6740  -16.3083   35.7287 C   0  0  0  0  0  0  0  0  0  0  0  0
   36.1448  -17.4898   35.1869 C   0  0  0  0  0  0  0  0  0  0  0  0
   35.2023  -18.3962   34.8182 N   0  0  0  0  0  0  0  0  0  0  0  0
   33.8870  -18.1995   34.9529 C   0  0  0  0  0  0  0  0  0  0  0  0
   33.4769  -17.0511   35.4777 N   0  0  0  0  0  0  0  0  0  0  0  0
   34.2983  -16.0978   35.8718 C   0  0  0  0  0  0  0  0  0  0  0  0
   33.7733  -14.9492   36.4009 C   0  0  0  0  0  0  0  0  0  0  0  0
   34.6253  -13.9506   36.8136 C   0  0  0  0  0  0  0  0  0  0  0  0
   32.9156  -19.1616   34.5609 N   0  0  0  0  0  0  0  0  0  0  0  0
   31.5252  -18.8002   34.3571 C   0  0  0  0  0  0  0  0  0  0  0  0
   30.5796  -19.6987   35.1191 C   0  0  0  0  0  0  0  0  0  0  0  0
   31.1922  -21.0265   35.4685 C   0  0  0  0  0  0  0  0  0  0  0  0
   31.8320  -21.0090   36.6774 F   0  0  0  0  0  0  0  0  0  0  0  0
   30.1864  -21.9938   35.5560 F   0  0  0  0  0  0  0  0  0  0  0  0
   32.1215  -21.4749   34.3644 C   0  0  0  0  0  0  0  0  0  0  0  0
   33.3040  -20.5392   34.3552 C   0  0  0  0  0  0  0  0  0  0  0  0
   38.1024  -13.5219   37.6849 C   0  0  0  0  0  0  0  0  0  0  0  0
   36.8818  -13.1334   37.0945 O   0  0  0  0  0  0  0  0  0  0  0  0
   37.5275  -17.7528   35.0217 N   0  0  0  0  0  0  0  0  0  0  0  0
   38.1560  -17.0072   34.6738 H   0  0  0  0  0  0  0  0  0  0  0  0
   38.1321  -19.0228   35.3130 C   0  0  0  0  0  0  0  0  0  0  0  0
   39.3048  -18.9584   36.2596 C   0  0  0  0  0  0  0  0  0  0  0  0
   39.5390  -20.3705   36.7502 C   0  0  0  0  0  0  0  0  0  0  0  0
   38.9785  -21.3748   35.9585 N   0  0  0  0  0  0  0  0  0  0  0  0
   38.9442  -21.1879   34.5566 C   0  0  0  0  0  0  0  0  0  0  0  0
   38.5732  -19.7952   34.0976 C   0  0  0  0  0  0  0  0  0  0  0  0
   38.0134  -22.2401   36.5099 C   0  0  0  0  0  0  0  0  0  0  0  0
   38.4358  -23.7021   36.6067 C   0  0  0  0  0  0  0  0  0  0  0  0
   38.0700  -22.9072   37.8028 C   0  0  0  0  0  0  0  0  0  0  0  0
   34.2104  -12.7514   37.3615 O   0  0  0  0  0  0  0  0  0  0  0  0
   33.0742  -12.7184   38.1693 C   0  0  0  0  0  0  0  0  0  0  0  0
   32.1161  -11.6257   37.7777 C   0  0  0  0  0  0  0  0  0  0  0  0
   30.6770  -12.0590   37.8867 C   0  0  0  0  0  0  0  0  0  0  0  0
   29.7483  -11.1404   37.3070 N   0  0  0  0  0  0  0  0  0  0  0  0
   28.3822  -11.3371   37.7000 C   0  0  0  0  0  0  0  0  0  0  0  0
   28.2871  -10.7385   39.0803 C   0  0  0  0  0  0  0  0  0  0  0  0
   29.1818   -9.5229   38.9554 C   0  0  0  0  0  0  0  0  0  0  0  0
   30.0930   -9.8098   37.8073 C   0  0  0  0  0  0  0  0  0  0  0  0
 19 20  1  0  0  0
 20  1  1  0  0  0
  1  2  2  0  0  0
  2  3  1  0  0  0
  3  4  2  0  0  0
  4 21  1  0  0  0
 21 23  1  0  0  0
 23 24  1  0  0  0
 24 25  1  0  0  0
 25 26  1  0  0  0
 26 27  1  0  0  0
 27 28  1  0  0  0
 26 29  1  0  0  0
 29 30  1  0  0  0
 30 31  1  0  0  0
  4  5  1  0  0  0
  5  6  2  0  0  0
  6  7  1  0  0  0
  7  8  2  0  0  0
  8  9  1  0  0  0
  9 10  2  0  0  0
 10 32  1  0  0  0
 32 33  1  0  0  0
 33 34  1  0  0  0
 34 35  1  0  0  0
 35 36  1  0  0  0
 36 37  1  0  0  0
 37 38  1  0  0  0
 38 39  1  0  0  0
 39 40  1  0  0  0
  6 11  1  0  0  0
 11 12  1  0  0  0
 12 13  1  0  0  0
 13 14  1  0  0  0
 14 15  1  0  0  0
 14 16  1  0  0  0
 14 17  1  0  0  0
 17 18  1  0  0  0
 10  1  1  0  0  0
 40 36  1  0  0  0
 18 11  1  0  0  0
  8  3  1  0  0  0
 28 23  1  0  0  0
 31 29  1  0  0  0
 21 22  1  0  0  0
M  END
> <minimizedAffinity>
-8.60201

> <CNNscore>
0.7169326544

> <CNNaffinity>
7.4365510941

> <CNN_VS>
5.3315062523

> <CNNaffinity_variance>
0.0477076732

$$$$
[H]c1c(OC([H])([H])C([H])([H])C([H])([H])N2C([H])([H])C([H])([H])C([H])([H])C2([H])[H])c(OC([H])([H])[H])c([H])c2c(N([H])C3([H])C([H])([H])C([H])([H])N(C4([H])C([H])([H])C4([H])[H])C([H])([H])C3([H])[H])nc(N3C([H])([H])C([H])([H])C(F)(F)C([H])([H])C3([H])[H])nc12


 40 45  0  0  0  0  0  0  0  0999 V2000
   36.1087  -14.5217   36.5929 C   0  0  0  0  0  0  0  0  0  0  0  0
   36.7452  -15.7676   36.5965 C   0  0  0  0  0  0  0  0  0  0  0  0
   36.0718  -16.9065   36.2542 C   0  0  0  0  0  0  0  0  0  0  0  0
   36.6732  -18.1513   36.2479 C   0  0  0  0  0  0  0  0  0  0  0  0
   35.8828  -19.1955   35.8864 N   0  0  0  0  0  0  0  0  0  0  0  0
   34.5953  -19.0731   35.5489 C   0  0  0  0  0  0  0  0  0  0  0  0
   34.0565  -17.8600   35.5679 N   0  0  0  0  0  0  0  0  0  0  0  0
   34.7245  -16.7732   35.9018 C   0  0  0  0  0  0  0  0  0  0  0  0
   34.0753  -15.5677   35.8895 C   0  0  0  0  0  0  0  0  0  0  0  0
   34.7671  -14.4300   36.2366 C   0  0  0  0  0  0  0  0  0  0  0  0
   33.7841  -20.1794   35.1734 N   0  0  0  0  0  0  0  0  0  0  0  0
   33.0248  -20.1818   33.9370 C   0  0  0  0  0  0  0  0  0  0  0  0
   31.5715  -20.5319   34.1550 C   0  0  0  0  0  0  0  0  0  0  0  0
   31.3402  -21.2891   35.4332 C   0  0  0  0  0  0  0  0  0  0  0  0
   31.0941  -20.4641   36.4963 F   0  0  0  0  0  0  0  0  0  0  0  0
   30.2183  -22.1112   35.2898 F   0  0  0  0  0  0  0  0  0  0  0  0
   32.5090  -22.2056   35.7112 C   0  0  0  0  0  0  0  0  0  0  0  0
   33.7014  -21.3400   36.0320 C   0  0  0  0  0  0  0  0  0  0  0  0
   37.9957  -13.5552   37.7246 C   0  0  0  0  0  0  0  0  0  0  0  0
   36.8305  -13.3924   36.9468 O   0  0  0  0  0  0  0  0  0  0  0  0
   38.0335  -18.3404   36.5975 N   0  0  0  0  0  0  0  0  0  0  0  0
   38.3912  -17.9698   37.4956 H   0  0  0  0  0  0  0  0  0  0  0  0
   38.9763  -19.0321   35.7633 C   0  0  0  0  0  0  0  0  0  0  0  0
   40.4229  -18.7924   36.1171 C   0  0  0  0  0  0  0  0  0  0  0  0
   41.2197  -19.8778   35.4267 C   0  0  0  0  0  0  0  0  0  0  0  0
   40.5666  -20.5114   34.3676 N   0  0  0  0  0  0  0  0  0  0  0  0
   39.7019  -19.7435   33.5527 C   0  0  0  0  0  0  0  0  0  0  0  0
   38.8196  -18.7608   34.2901 C   0  0  0  0  0  0  0  0  0  0  0  0
   40.3212  -21.8971   34.4288 C   0  0  0  0  0  0  0  0  0  0  0  0
   39.7708  -22.3980   35.7597 C   0  0  0  0  0  0  0  0  0  0  0  0
   39.0245  -22.5564   34.4891 C   0  0  0  0  0  0  0  0  0  0  0  0
   34.2171  -13.1622   36.2603 O   0  0  0  0  0  0  0  0  0  0  0  0
   33.1034  -12.9082   37.0601 C   0  0  0  0  0  0  0  0  0  0  0  0
   33.1352  -11.5369   37.6796 C   0  0  0  0  0  0  0  0  0  0  0  0
   33.9787  -10.5702   36.8891 C   0  0  0  0  0  0  0  0  0  0  0  0
   33.9132   -9.2225   37.3603 N   0  0  0  0  0  0  0  0  0  0  0  0
   34.5202   -8.2522   36.4946 C   0  0  0  0  0  0  0  0  0  0  0  0
   33.5151   -8.0357   35.3919 C   0  0  0  0  0  0  0  0  0  0  0  0
   32.2044   -8.0979   36.1481 C   0  0  0  0  0  0  0  0  0  0  0  0
   32.4989   -8.8519   37.4033 C   0  0  0  0  0  0  0  0  0  0  0  0
 19 20  1  0  0  0
 20  1  1  0  0  0
  1  2  2  0  0  0
  2  3  1  0  0  0
  3  4  2  0  0  0
  4 21  1  0  0  0
 21 23  1  0  0  0
 23 24  1  0  0  0
 24 25  1  0  0  0
 25 26  1  0  0  0
 26 27  1  0  0  0
 27 28  1  0  0  0
 26 29  1  0  0  0
 29 30  1  0  0  0
 30 31  1  0  0  0
  4  5  1  0  0  0
  5  6  2  0  0  0
  6  7  1  0  0  0
  7  8  2  0  0  0
  8  9  1  0  0  0
  9 10  2  0  0  0
 10 32  1  0  0  0
 32 33  1  0  0  0
 33 34  1  0  0  0
 34 35  1  0  0  0
 35 36  1  0  0  0
 36 37  1  0  0  0
 37 38  1  0  0  0
 38 39  1  0  0  0
 39 40  1  0  0  0
  6 11  1  0  0  0
 11 12  1  0  0  0
 12 13  1  0  0  0
 13 14  1  0  0  0
 14 15  1  0  0  0
 14 16  1  0  0  0
 14 17  1  0  0  0
 17 18  1  0  0  0
 10  1  1  0  0  0
 40 36  1  0  0  0
 18 11  1  0  0  0
  8  3  1  0  0  0
 28 23  1  0  0  0
 31 29  1  0  0  0
 21 22  1  0  0  0
M  END
> <minimizedAffinity>
-7.51607

> <CNNscore>
0.4555708170

> <CNNaffinity>
7.0150747299

> <CNN_VS>
3.1958632469

> <CNNaffinity_variance>
0.0146920206

$$$$
[H]c1c(OC([H])([H])C([H])([H])C([H])([H])N2C([H])([H])C([H])([H])C([H])([H])C2([H])[H])c(OC([H])([H])[H])c([H])c2c(N([H])C3([H])C([H])([H])C([H])([H])N(C4([H])C([H])([H])C4([H])[H])C([H])([H])C3([H])[H])nc(N3C([H])([H])C([H])([H])C(F)(F)C([H])([H])C3([H])[H])nc12


 40 45  0  0  0  0  0  0  0  0999 V2000
   33.8983  -14.2241   36.0851 C   0  0  0  0  0  0  0  0  0  0  0  0
   33.5981  -15.5317   35.6883 C   0  0  0  0  0  0  0  0  0  0  0  0
   34.5358  -16.5237   35.7550 C   0  0  0  0  0  0  0  0  0  0  0  0
   34.2691  -17.8246   35.3707 C   0  0  0  0  0  0  0  0  0  0  0  0
   35.2959  -18.7061   35.4911 N   0  0  0  0  0  0  0  0  0  0  0  0
   36.5084  -18.3792   35.9491 C   0  0  0  0  0  0  0  0  0  0  0  0
   36.7225  -17.1190   36.3075 N   0  0  0  0  0  0  0  0  0  0  0  0
   35.8032  -16.1765   36.2349 C   0  0  0  0  0  0  0  0  0  0  0  0
   36.1259  -14.9058   36.6299 C   0  0  0  0  0  0  0  0  0  0  0  0
   35.1707  -13.9180   36.5569 C   0  0  0  0  0  0  0  0  0  0  0  0
   37.5709  -19.3173   36.0674 N   0  0  0  0  0  0  0  0  0  0  0  0
   37.4093  -20.7043   35.6730 C   0  0  0  0  0  0  0  0  0  0  0  0
   37.8378  -21.6645   36.7577 C   0  0  0  0  0  0  0  0  0  0  0  0
   38.7893  -21.0439   37.7425 C   0  0  0  0  0  0  0  0  0  0  0  0
   38.1459  -20.4540   38.7957 F   0  0  0  0  0  0  0  0  0  0  0  0
   39.6173  -22.0357   38.2771 F   0  0  0  0  0  0  0  0  0  0  0  0
   39.6975  -20.0631   37.0377 C   0  0  0  0  0  0  0  0  0  0  0  0
   38.8514  -18.8973   36.5914 C   0  0  0  0  0  0  0  0  0  0  0  0
   32.2205  -12.8922   37.1745 C   0  0  0  0  0  0  0  0  0  0  0  0
   32.9163  -13.2494   36.0008 O   0  0  0  0  0  0  0  0  0  0  0  0
   33.0033  -18.2274   34.8771 N   0  0  0  0  0  0  0  0  0  0  0  0
   32.4588  -17.5880   34.2717 H   0  0  0  0  0  0  0  0  0  0  0  0
   32.4083  -19.5016   35.1703 C   0  0  0  0  0  0  0  0  0  0  0  0
   32.7567  -20.5976   34.1943 C   0  0  0  0  0  0  0  0  0  0  0  0
   32.3914  -21.9033   34.8660 C   0  0  0  0  0  0  0  0  0  0  0  0
   31.4926  -21.7931   35.9289 N   0  0  0  0  0  0  0  0  0  0  0  0
   30.4757  -20.8124   35.8532 C   0  0  0  0  0  0  0  0  0  0  0  0
   30.9081  -19.4722   35.3014 C   0  0  0  0  0  0  0  0  0  0  0  0
   31.8821  -22.2092   37.2172 C   0  0  0  0  0  0  0  0  0  0  0  0
   30.8233  -22.9846   37.9936 C   0  0  0  0  0  0  0  0  0  0  0  0
   32.1416  -23.5725   37.6575 C   0  0  0  0  0  0  0  0  0  0  0  0
   35.3819  -12.6031   36.9267 O   0  0  0  0  0  0  0  0  0  0  0  0
   36.2061  -11.7914   36.1481 C   0  0  0  0  0  0  0  0  0  0  0  0
   35.6089  -10.4335   35.8933 C   0  0  0  0  0  0  0  0  0  0  0  0
   34.2963  -10.2413   36.6081 C   0  0  0  0  0  0  0  0  0  0  0  0
   34.0702   -8.9037   37.0577 N   0  0  0  0  0  0  0  0  0  0  0  0
   34.3787   -7.8850   36.0951 C   0  0  0  0  0  0  0  0  0  0  0  0
   33.2085   -7.8845   35.1445 C   0  0  0  0  0  0  0  0  0  0  0  0
   32.0447   -8.1286   36.0824 C   0  0  0  0  0  0  0  0  0  0  0  0
   32.6334   -8.7691   37.2965 C   0  0  0  0  0  0  0  0  0  0  0  0
 19 20  1  0  0  0
 20  1  1  0  0  0
  1  2  2  0  0  0
  2  3  1  0  0  0
  3  4  2  0  0  0
  4 21  1  0  0  0
 21 23  1  0  0  0
 23 24  1  0  0  0
 24 25  1  0  0  0
 25 26  1  0  0  0
 26 27  1  0  0  0
 27 28  1  0  0  0
 26 29  1  0  0  0
 29 30  1  0  0  0
 30 31  1  0  0  0
  4  5  1  0  0  0
  5  6  2  0  0  0
  6  7  1  0  0  0
  7  8  2  0  0  0
  8  9  1  0  0  0
  9 10  2  0  0  0
 10 32  1  0  0  0
 32 33  1  0  0  0
 33 34  1  0  0  0
 34 35  1  0  0  0
 35 36  1  0  0  0
 36 37  1  0  0  0
 37 38  1  0  0  0
 38 39  1  0  0  0
 39 40  1  0  0  0
  6 11  1  0  0  0
 11 12  1  0  0  0
 12 13  1  0  0  0
 13 14  1  0  0  0
 14 15  1  0  0  0
 14 16  1  0  0  0
 14 17  1  0  0  0
 17 18  1  0  0  0
 10  1  1  0  0  0
 40 36  1  0  0  0
 18 11  1  0  0  0
  8  3  1  0  0  0
 28 23  1  0  0  0
 31 29  1  0  0  0
 21 22  1  0  0  0
M  END
> <minimizedAffinity>
-6.04439

> <CNNscore>
0.4331441522

> <CNNaffinity>
7.0401124954

> <CNN_VS>
3.0493836403

> <CNNaffinity_variance>
0.0340979919

$$$$
[H]c1c(OC([H])([H])C([H])([H])C([H])([H])N2C([H])([H])C([H])([H])C([H])([H])C2([H])[H])c(OC([H])([H])[H])c([H])c2c(N([H])C3([H])C([H])([H])C([H])([H])N(C4([H])C([H])([H])C4([H])[H])C([H])([H])C3([H])[H])nc(N3C([H])([H])C([H])([H])C(F)(F)C([H])([H])C3([H])[H])nc12


 40 45  0  0  0  0  0  0  0  0999 V2000
   33.9661  -14.4010   36.1687 C   0  0  0  0  0  0  0  0  0  0  0  0
   33.7078  -15.6673   35.6326 C   0  0  0  0  0  0  0  0  0  0  0  0
   34.7072  -16.5863   35.4767 C   0  0  0  0  0  0  0  0  0  0  0  0
   34.4832  -17.8449   34.9505 C   0  0  0  0  0  0  0  0  0  0  0  0
   35.5698  -18.6547   34.8538 N   0  0  0  0  0  0  0  0  0  0  0  0
   36.8009  -18.2976   35.2325 C   0  0  0  0  0  0  0  0  0  0  0  0
   36.9727  -17.0799   35.7327 N   0  0  0  0  0  0  0  0  0  0  0  0
   35.9939  -16.2077   35.8745 C   0  0  0  0  0  0  0  0  0  0  0  0
   36.2766  -14.9761   36.4018 C   0  0  0  0  0  0  0  0  0  0  0  0
   35.2595  -14.0617   36.5525 C   0  0  0  0  0  0  0  0  0  0  0  0
   37.9263  -19.1604   35.1227 N   0  0  0  0  0  0  0  0  0  0  0  0
   38.9008  -19.2804   36.1910 C   0  0  0  0  0  0  0  0  0  0  0  0
   40.3174  -19.0908   35.7015 C   0  0  0  0  0  0  0  0  0  0  0  0
   40.4630  -19.3451   34.2269 C   0  0  0  0  0  0  0  0  0  0  0  0
   40.2652  -18.2185   33.4766 F   0  0  0  0  0  0  0  0  0  0  0  0
   41.7615  -19.7885   33.9578 F   0  0  0  0  0  0  0  0  0  0  0  0
   39.5342  -20.4574   33.7987 C   0  0  0  0  0  0  0  0  0  0  0  0
   38.1212  -19.9458   33.9243 C   0  0  0  0  0  0  0  0  0  0  0  0
   32.4919  -13.1666   37.6104 C   0  0  0  0  0  0  0  0  0  0  0  0
   32.9219  -13.5002   36.3092 O   0  0  0  0  0  0  0  0  0  0  0  0
   33.2001  -18.2767   34.5317 N   0  0  0  0  0  0  0  0  0  0  0  0
   32.6417  -17.6866   33.8899 H   0  0  0  0  0  0  0  0  0  0  0  0
   32.6055  -19.5150   34.9516 C   0  0  0  0  0  0  0  0  0  0  0  0
   32.9845  -19.9540   36.3441 C   0  0  0  0  0  0  0  0  0  0  0  0
   31.9836  -21.0146   36.7477 C   0  0  0  0  0  0  0  0  0  0  0  0
   31.2917  -21.6107   35.6915 N   0  0  0  0  0  0  0  0  0  0  0  0
   31.9733  -21.8143   34.4685 C   0  0  0  0  0  0  0  0  0  0  0  0
   32.8635  -20.6745   34.0255 C   0  0  0  0  0  0  0  0  0  0  0  0
   29.8885  -21.5042   35.6289 C   0  0  0  0  0  0  0  0  0  0  0  0
   29.1254  -22.7487   36.0693 C   0  0  0  0  0  0  0  0  0  0  0  0
   28.9626  -21.4429   36.7509 C   0  0  0  0  0  0  0  0  0  0  0  0
   35.4261  -12.7916   37.0716 O   0  0  0  0  0  0  0  0  0  0  0  0
   36.4300  -11.9661   36.5665 C   0  0  0  0  0  0  0  0  0  0  0  0
   35.8850  -10.8122   35.7686 C   0  0  0  0  0  0  0  0  0  0  0  0
   34.4743  -10.4582   36.1628 C   0  0  0  0  0  0  0  0  0  0  0  0
   34.3782   -9.3091   37.0071 N   0  0  0  0  0  0  0  0  0  0  0  0
   34.3703   -8.0523   36.3144 C   0  0  0  0  0  0  0  0  0  0  0  0
   32.9683   -7.9159   35.7771 C   0  0  0  0  0  0  0  0  0  0  0  0
   32.1440   -8.5015   36.9046 C   0  0  0  0  0  0  0  0  0  0  0  0
   33.0785   -9.3757   37.6749 C   0  0  0  0  0  0  0  0  0  0  0  0
 19 20  1  0  0  0
 20  1  1  0  0  0
  1  2  2  0  0  0
  2  3  1  0  0  0
  3  4  2  0  0  0
  4 21  1  0  0  0
 21 23  1  0  0  0
 23 24  1  0  0  0
 24 25  1  0  0  0
 25 26  1  0  0  0
 26 27  1  0  0  0
 27 28  1  0  0  0
 26 29  1  0  0  0
 29 30  1  0  0  0
 30 31  1  0  0  0
  4  5  1  0  0  0
  5  6  2  0  0  0
  6  7  1  0  0  0
  7  8  2  0  0  0
  8  9  1  0  0  0
  9 10  2  0  0  0
 10 32  1  0  0  0
 32 33  1  0  0  0
 33 34  1  0  0  0
 34 35  1  0  0  0
 35 36  1  0  0  0
 36 37  1  0  0  0
 37 38  1  0  0  0
 38 39  1  0  0  0
 39 40  1  0  0  0
  6 11  1  0  0  0
 11 12  1  0  0  0
 12 13  1  0  0  0
 13 14  1  0  0  0
 14 15  1  0  0  0
 14 16  1  0  0  0
 14 17  1  0  0  0
 17 18  1  0  0  0
 10  1  1  0  0  0
 40 36  1  0  0  0
 18 11  1  0  0  0
  8  3  1  0  0  0
 28 23  1  0  0  0
 31 29  1  0  0  0
 21 22  1  0  0  0
M  END
> <minimizedAffinity>
-6.85996

> <CNNscore>
0.4127517343

> <CNNaffinity>
6.9787926674

> <CNN_VS>
2.8805086613

> <CNNaffinity_variance>
0.0421274528

$$$$
[H]c1c(OC([H])([H])C([H])([H])C([H])([H])N2C([H])([H])C([H])([H])C([H])([H])C2([H])[H])c(OC([H])([H])[H])c([H])c2c(N([H])C3([H])C([H])([H])C([H])([H])N(C4([H])C([H])([H])C4([H])[H])C([H])([H])C3([H])[H])nc(N3C([H])([H])C([H])([H])C(F)(F)C([H])([H])C3([H])[H])nc12


 40 45  0  0  0  0  0  0  0  0999 V2000
   39.4929  -21.3152   36.4049 C   0  0  0  0  0  0  0  0  0  0  0  0
   38.2779  -21.2323   37.0936 C   0  0  0  0  0  0  0  0  0  0  0  0
   37.5918  -20.0534   37.1774 C   0  0  0  0  0  0  0  0  0  0  0  0
   36.3894  -19.9402   37.8502 C   0  0  0  0  0  0  0  0  0  0  0  0
   35.8187  -18.7073   37.8518 N   0  0  0  0  0  0  0  0  0  0  0  0
   36.3523  -17.6388   37.2515 C   0  0  0  0  0  0  0  0  0  0  0  0
   37.5081  -17.7907   36.6163 N   0  0  0  0  0  0  0  0  0  0  0  0
   38.1544  -18.9381   36.5476 C   0  0  0  0  0  0  0  0  0  0  0  0
   39.3414  -18.9889   35.8670 C   0  0  0  0  0  0  0  0  0  0  0  0
   40.0204  -20.1834   35.7915 C   0  0  0  0  0  0  0  0  0  0  0  0
   35.7390  -16.3556   37.2649 N   0  0  0  0  0  0  0  0  0  0  0  0
   34.4639  -16.1145   36.6158 C   0  0  0  0  0  0  0  0  0  0  0  0
   34.5085  -14.9267   35.6833 C   0  0  0  0  0  0  0  0  0  0  0  0
   35.6235  -13.9722   36.0089 C   0  0  0  0  0  0  0  0  0  0  0  0
   36.7851  -14.2770   35.3539 F   0  0  0  0  0  0  0  0  0  0  0  0
   35.2610  -12.6814   35.6120 F   0  0  0  0  0  0  0  0  0  0  0  0
   35.8372  -13.9156   37.5037 C   0  0  0  0  0  0  0  0  0  0  0  0
   36.3869  -15.2513   37.9370 C   0  0  0  0  0  0  0  0  0  0  0  0
   41.0344  -22.8713   37.3939 C   0  0  0  0  0  0  0  0  0  0  0  0
   40.1548  -22.5316   36.3450 O   0  0  0  0  0  0  0  0  0  0  0  0
   35.7782  -21.0383   38.5052 N   0  0  0  0  0  0  0  0  0  0  0  0
   36.1001  -21.3203   39.4479 H   0  0  0  0  0  0  0  0  0  0  0  0
   34.7107  -21.8086   37.9303 C   0  0  0  0  0  0  0  0  0  0  0  0
   33.4822  -21.9257   38.7978 C   0  0  0  0  0  0  0  0  0  0  0  0
   32.3633  -22.3998   37.8963 C   0  0  0  0  0  0  0  0  0  0  0  0
   32.7746  -22.9955   36.7022 N   0  0  0  0  0  0  0  0  0  0  0  0
   33.9566  -23.7730   36.7089 C   0  0  0  0  0  0  0  0  0  0  0  0
   35.1038  -23.2010   37.5118 C   0  0  0  0  0  0  0  0  0  0  0  0
   32.3932  -22.4261   35.4715 C   0  0  0  0  0  0  0  0  0  0  0  0
   31.3600  -23.2235   34.6830 C   0  0  0  0  0  0  0  0  0  0  0  0
   31.1037  -21.8371   35.1398 C   0  0  0  0  0  0  0  0  0  0  0  0
   41.2239  -20.3536   35.1337 O   0  0  0  0  0  0  0  0  0  0  0  0
   41.3447  -19.9564   33.8025 C   0  0  0  0  0  0  0  0  0  0  0  0
   41.3339  -21.1193   32.8471 C   0  0  0  0  0  0  0  0  0  0  0  0
   42.0235  -22.3333   33.4141 C   0  0  0  0  0  0  0  0  0  0  0  0
   41.8364  -23.5212   32.6418 N   0  0  0  0  0  0  0  0  0  0  0  0
   42.5759  -23.5628   31.4127 C   0  0  0  0  0  0  0  0  0  0  0  0
   43.9842  -23.9135   31.8208 C   0  0  0  0  0  0  0  0  0  0  0  0
   43.7467  -24.9054   32.9403 C   0  0  0  0  0  0  0  0  0  0  0  0
   42.3630  -24.6335   33.4324 C   0  0  0  0  0  0  0  0  0  0  0  0
 19 20  1  0  0  0
 20  1  1  0  0  0
  1  2  2  0  0  0
  2  3  1  0  0  0
  3  4  2  0  0  0
  4 21  1  0  0  0
 21 23  1  0  0  0
 23 24  1  0  0  0
 24 25  1  0  0  0
 25 26  1  0  0  0
 26 27  1  0  0  0
 27 28  1  0  0  0
 26 29  1  0  0  0
 29 30  1  0  0  0
 30 31  1  0  0  0
  4  5  1  0  0  0
  5  6  2  0  0  0
  6  7  1  0  0  0
  7  8  2  0  0  0
  8  9  1  0  0  0
  9 10  2  0  0  0
 10 32  1  0  0  0
 32 33  1  0  0  0
 33 34  1  0  0  0
 34 35  1  0  0  0
 35 36  1  0  0  0
 36 37  1  0  0  0
 37 38  1  0  0  0
 38 39  1  0  0  0
 39 40  1  0  0  0
  6 11  1  0  0  0
 11 12  1  0  0  0
 12 13  1  0  0  0
 13 14  1  0  0  0
 14 15  1  0  0  0
 14 16  1  0  0  0
 14 17  1  0  0  0
 17 18  1  0  0  0
 10  1  1  0  0  0
 40 36  1  0  0  0
 18 11  1  0  0  0
  8  3  1  0  0  0
 28 23  1  0  0  0
 31 29  1  0  0  0
 21 22  1  0  0  0
M  END
> <minimizedAffinity>
-5.17694

> <CNNscore>
0.2766945958

> <CNNaffinity>
5.9235062599

> <CNN_VS>
1.6390022039

> <CNNaffinity_variance>
0.0719343051

$$$$
[H]c1c(OC([H])([H])C([H])([H])C([H])([H])N2C([H])([H])C([H])([H])C([H])([H])C2([H])[H])c(OC([H])([H])[H])c([H])c2c(N([H])C3([H])C([H])([H])C([H])([H])N(C4([H])C([H])([H])C4([H])[H])C([H])([H])C3([H])[H])nc(N3C([H])([H])C([H])([H])C(F)(F)C([H])([H])C3([H])[H])nc12


 40 45  0  0  0  0  0  0  0  0999 V2000
   37.1861  -19.0505   35.6443 C   0  0  0  0  0  0  0  0  0  0  0  0
   35.8983  -18.6232   35.3035 C   0  0  0  0  0  0  0  0  0  0  0  0
   35.4078  -17.4290   35.7520 C   0  0  0  0  0  0  0  0  0  0  0  0
   34.1401  -16.9797   35.4323 C   0  0  0  0  0  0  0  0  0  0  0  0
   33.7852  -15.7740   35.9481 N   0  0  0  0  0  0  0  0  0  0  0  0
   34.5820  -15.0319   36.7233 C   0  0  0  0  0  0  0  0  0  0  0  0
   35.7916  -15.4999   37.0062 N   0  0  0  0  0  0  0  0  0  0  0  0
   36.2456  -16.6560   36.5631 C   0  0  0  0  0  0  0  0  0  0  0  0
   37.5098  -17.0483   36.9132 C   0  0  0  0  0  0  0  0  0  0  0  0
   37.9893  -18.2534   36.4536 C   0  0  0  0  0  0  0  0  0  0  0  0
   34.1914  -13.7714   37.2542 N   0  0  0  0  0  0  0  0  0  0  0  0
   33.4700  -13.6642   38.5085 C   0  0  0  0  0  0  0  0  0  0  0  0
   32.2228  -12.8207   38.3845 C   0  0  0  0  0  0  0  0  0  0  0  0
   32.2699  -11.8800   37.2127 C   0  0  0  0  0  0  0  0  0  0  0  0
   31.7656  -12.4374   36.0698 F   0  0  0  0  0  0  0  0  0  0  0  0
   31.4922  -10.7518   37.4909 F   0  0  0  0  0  0  0  0  0  0  0  0
   33.6819  -11.3845   37.0026 C   0  0  0  0  0  0  0  0  0  0  0  0
   34.5124  -12.5554   36.5406 C   0  0  0  0  0  0  0  0  0  0  0  0
   37.6085  -21.3850   36.0284 C   0  0  0  0  0  0  0  0  0  0  0  0
   37.6430  -20.2690   35.1667 O   0  0  0  0  0  0  0  0  0  0  0  0
   33.2528  -17.7246   34.6161 N   0  0  0  0  0  0  0  0  0  0  0  0
   33.0359  -17.3973   33.6581 H   0  0  0  0  0  0  0  0  0  0  0  0
   32.6152  -18.9389   35.0432 C   0  0  0  0  0  0  0  0  0  0  0  0
   31.1118  -18.9364   34.9202 C   0  0  0  0  0  0  0  0  0  0  0  0
   30.6700  -20.3801   35.0215 C   0  0  0  0  0  0  0  0  0  0  0  0
   31.6000  -21.2465   35.5995 N   0  0  0  0  0  0  0  0  0  0  0  0
   32.4167  -20.7581   36.6464 C   0  0  0  0  0  0  0  0  0  0  0  0
   32.9537  -19.3579   36.4497 C   0  0  0  0  0  0  0  0  0  0  0  0
   32.1021  -22.3298   34.8519 C   0  0  0  0  0  0  0  0  0  0  0  0
   32.0641  -23.6784   35.5625 C   0  0  0  0  0  0  0  0  0  0  0  0
   31.3403  -23.4370   34.2920 C   0  0  0  0  0  0  0  0  0  0  0  0
   39.2461  -18.7512   36.7415 O   0  0  0  0  0  0  0  0  0  0  0  0
   40.1777  -18.9078   35.7158 C   0  0  0  0  0  0  0  0  0  0  0  0
   41.3651  -19.7336   36.1323 C   0  0  0  0  0  0  0  0  0  0  0  0
   42.6229  -18.9118   36.2473 C   0  0  0  0  0  0  0  0  0  0  0  0
   42.5015  -17.5877   35.7233 N   0  0  0  0  0  0  0  0  0  0  0  0
   43.0428  -16.5566   36.5618 C   0  0  0  0  0  0  0  0  0  0  0  0
   44.5334  -16.6271   36.3477 C   0  0  0  0  0  0  0  0  0  0  0  0
   44.6216  -16.9344   34.8673 C   0  0  0  0  0  0  0  0  0  0  0  0
   43.3041  -17.5353   34.5015 C   0  0  0  0  0  0  0  0  0  0  0  0
 19 20  1  0  0  0
 20  1  1  0  0  0
  1  2  2  0  0  0
  2  3  1  0  0  0
  3  4  2  0  0  0
  4 21  1  0  0  0
 21 23  1  0  0  0
 23 24  1  0  0  0
 24 25  1  0  0  0
 25 26  1  0  0  0
 26 27  1  0  0  0
 27 28  1  0  0  0
 26 29  1  0  0  0
 29 30  1  0  0  0
 30 31  1  0  0  0
  4  5  1  0  0  0
  5  6  2  0  0  0
  6  7  1  0  0  0
  7  8  2  0  0  0
  8  9  1  0  0  0
  9 10  2  0  0  0
 10 32  1  0  0  0
 32 33  1  0  0  0
 33 34  1  0  0  0
 34 35  1  0  0  0
 35 36  1  0  0  0
 36 37  1  0  0  0
 37 38  1  0  0  0
 38 39  1  0  0  0
 39 40  1  0  0  0
  6 11  1  0  0  0
 11 12  1  0  0  0
 12 13  1  0  0  0
 13 14  1  0  0  0
 14 15  1  0  0  0
 14 16  1  0  0  0
 14 17  1  0  0  0
 17 18  1  0  0  0
 10  1  1  0  0  0
 40 36  1  0  0  0
 18 11  1  0  0  0
  8  3  1  0  0  0
 28 23  1  0  0  0
 31 29  1  0  0  0
 21 22  1  0  0  0
M  END
> <minimizedAffinity>
-6.33434

> <CNNscore>
0.2431216389

> <CNNaffinity>
6.5417799950

> <CNN_VS>
1.5904482603

> <CNNaffinity_variance>
0.0489641055

$$$$
[H]c1c(OC([H])([H])C([H])([H])C([H])([H])N2C([H])([H])C([H])([H])C([H])([H])C2([H])[H])c(OC([H])([H])[H])c([H])c2c(N([H])C3([H])C([H])([H])C([H])([H])N(C4([H])C([H])([H])C4([H])[H])C([H])([H])C3([H])[H])nc(N3C([H])([H])C([H])([H])C(F)(F)C([H])([H])C3([H])[H])nc12


 40 45  0  0  0  0  0  0  0  0999 V2000
   36.1343  -15.4922   36.3963 C   0  0  0  0  0  0  0  0  0  0  0  0
   36.5458  -16.8109   36.6179 C   0  0  0  0  0  0  0  0  0  0  0  0
   35.6558  -17.8469   36.5692 C   0  0  0  0  0  0  0  0  0  0  0  0
   36.0320  -19.1598   36.7834 C   0  0  0  0  0  0  0  0  0  0  0  0
   35.0415  -20.0863   36.7039 N   0  0  0  0  0  0  0  0  0  0  0  0
   33.7654  -19.7913   36.4370 C   0  0  0  0  0  0  0  0  0  0  0  0
   33.4464  -18.5182   36.2376 N   0  0  0  0  0  0  0  0  0  0  0  0
   34.3214  -17.5330   36.2895 C   0  0  0  0  0  0  0  0  0  0  0  0
   33.8897  -16.2525   36.0687 C   0  0  0  0  0  0  0  0  0  0  0  0
   34.7980  -15.2202   36.1211 C   0  0  0  0  0  0  0  0  0  0  0  0
   32.7425  -20.7764   36.3584 N   0  0  0  0  0  0  0  0  0  0  0  0
   32.9450  -22.1254   36.8530 C   0  0  0  0  0  0  0  0  0  0  0  0
   32.5828  -23.1744   35.8279 C   0  0  0  0  0  0  0  0  0  0  0  0
   31.6361  -22.6611   34.7788 C   0  0  0  0  0  0  0  0  0  0  0  0
   32.2856  -22.1206   33.7030 F   0  0  0  0  0  0  0  0  0  0  0  0
   30.8610  -23.7193   34.2946 F   0  0  0  0  0  0  0  0  0  0  0  0
   30.6728  -21.6705   35.3903 C   0  0  0  0  0  0  0  0  0  0  0  0
   31.4619  -20.4443   35.7747 C   0  0  0  0  0  0  0  0  0  0  0  0
   37.5336  -14.0557   37.7207 C   0  0  0  0  0  0  0  0  0  0  0  0
   37.0713  -14.4723   36.4551 O   0  0  0  0  0  0  0  0  0  0  0  0
   37.3692  -19.5303   37.0711 N   0  0  0  0  0  0  0  0  0  0  0  0
   37.6782  -19.6226   38.0550 H   0  0  0  0  0  0  0  0  0  0  0  0
   38.3531  -19.7936   36.0582 C   0  0  0  0  0  0  0  0  0  0  0  0
   39.6360  -19.0149   36.2105 C   0  0  0  0  0  0  0  0  0  0  0  0
   40.6608  -19.6990   35.3323 C   0  0  0  0  0  0  0  0  0  0  0  0
   40.1337  -20.5256   34.3380 N   0  0  0  0  0  0  0  0  0  0  0  0
   38.9199  -20.1452   33.7184 C   0  0  0  0  0  0  0  0  0  0  0  0
   37.8644  -19.5894   34.6482 C   0  0  0  0  0  0  0  0  0  0  0  0
   40.4487  -21.8985   34.3333 C   0  0  0  0  0  0  0  0  0  0  0  0
   41.5441  -22.3071   33.3544 C   0  0  0  0  0  0  0  0  0  0  0  0
   41.6745  -22.5188   34.8154 C   0  0  0  0  0  0  0  0  0  0  0  0
   34.4779  -13.8915   35.9157 O   0  0  0  0  0  0  0  0  0  0  0  0
   33.1429  -13.4902   35.9499 C   0  0  0  0  0  0  0  0  0  0  0  0
   32.8120  -12.6810   37.1750 C   0  0  0  0  0  0  0  0  0  0  0  0
   31.4131  -12.1225   37.1325 C   0  0  0  0  0  0  0  0  0  0  0  0
   30.9612  -11.5924   38.3804 N   0  0  0  0  0  0  0  0  0  0  0  0
   29.6736  -10.9604   38.3349 C   0  0  0  0  0  0  0  0  0  0  0  0
   28.6846  -12.0983   38.3302 C   0  0  0  0  0  0  0  0  0  0  0  0
   29.3400  -13.0850   39.2739 C   0  0  0  0  0  0  0  0  0  0  0  0
   30.7895  -12.7250   39.2900 C   0  0  0  0  0  0  0  0  0  0  0  0
 19 20  1  0  0  0
 20  1  1  0  0  0
  1  2  2  0  0  0
  2  3  1  0  0  0
  3  4  2  0  0  0
  4 21  1  0  0  0
 21 23  1  0  0  0
 23 24  1  0  0  0
 24 25  1  0  0  0
 25 26  1  0  0  0
 26 27  1  0  0  0
 27 28  1  0  0  0
 26 29  1  0  0  0
 29 30  1  0  0  0
 30 31  1  0  0  0
  4  5  1  0  0  0
  5  6  2  0  0  0
  6  7  1  0  0  0
  7  8  2  0  0  0
  8  9  1  0  0  0
  9 10  2  0  0  0
 10 32  1  0  0  0
 32 33  1  0  0  0
 33 34  1  0  0  0
 34 35  1  0  0  0
 35 36  1  0  0  0
 36 37  1  0  0  0
 37 38  1  0  0  0
 38 39  1  0  0  0
 39 40  1  0  0  0
  6 11  1  0  0  0
 11 12  1  0  0  0
 12 13  1  0  0  0
 13 14  1  0  0  0
 14 15  1  0  0  0
 14 16  1  0  0  0
 14 17  1  0  0  0
 17 18  1  0  0  0
 10  1  1  0  0  0
 40 36  1  0  0  0
 18 11  1  0  0  0
  8  3  1  0  0  0
 28 23  1  0  0  0
 31 29  1  0  0  0
 21 22  1  0  0  0
M  END
> <minimizedAffinity>
-6.94932

> <CNNscore>
0.2352483273

> <CNNaffinity>
6.5632429123

> <CNN_VS>
1.5439919233

> <CNNaffinity_variance>
0.0737074912

$$$$
[H]c1c(OC([H])([H])C([H])([H])C([H])([H])N2C([H])([H])C([H])([H])C([H])([H])C2([H])[H])c(OC([H])([H])[H])c([H])c2c(N([H])C3([H])C([H])([H])C([H])([H])N(C4([H])C([H])([H])C4([H])[H])C([H])([H])C3([H])[H])nc(N3C([H])([H])C([H])([H])C(F)(F)C([H])([H])C3([H])[H])nc12


 40 45  0  0  0  0  0  0  0  0999 V2000
   36.3145  -21.6242   37.2445 C   0  0  0  0  0  0  0  0  0  0  0  0
   37.2565  -20.6161   37.0129 C   0  0  0  0  0  0  0  0  0  0  0  0
   36.8684  -19.3297   36.7631 C   0  0  0  0  0  0  0  0  0  0  0  0
   37.7751  -18.3123   36.5309 C   0  0  0  0  0  0  0  0  0  0  0  0
   37.2472  -17.0826   36.2968 N   0  0  0  0  0  0  0  0  0  0  0  0
   35.9355  -16.8257   36.2824 C   0  0  0  0  0  0  0  0  0  0  0  0
   35.0989  -17.8309   36.5102 N   0  0  0  0  0  0  0  0  0  0  0  0
   35.4946  -19.0659   36.7490 C   0  0  0  0  0  0  0  0  0  0  0  0
   34.5500  -20.0318   36.9719 C   0  0  0  0  0  0  0  0  0  0  0  0
   34.9567  -21.3223   37.2220 C   0  0  0  0  0  0  0  0  0  0  0  0
   35.4023  -15.5305   36.0348 N   0  0  0  0  0  0  0  0  0  0  0  0
   36.2601  -14.3698   35.8857 C   0  0  0  0  0  0  0  0  0  0  0  0
   35.8404  -13.2258   36.7786 C   0  0  0  0  0  0  0  0  0  0  0  0
   34.4010  -13.3162   37.2034 C   0  0  0  0  0  0  0  0  0  0  0  0
   34.2385  -14.0199   38.3651 F   0  0  0  0  0  0  0  0  0  0  0  0
   33.9033  -12.0303   37.4353 F   0  0  0  0  0  0  0  0  0  0  0  0
   33.5674  -13.9024   36.0876 C   0  0  0  0  0  0  0  0  0  0  0  0
   33.9723  -15.3460   35.9256 C   0  0  0  0  0  0  0  0  0  0  0  0
   37.6644  -23.1238   38.5502 C   0  0  0  0  0  0  0  0  0  0  0  0
   36.7530  -22.9153   37.4941 O   0  0  0  0  0  0  0  0  0  0  0  0
   39.1759  -18.5270   36.5330 N   0  0  0  0  0  0  0  0  0  0  0  0
   39.7385  -18.2513   37.3573 H   0  0  0  0  0  0  0  0  0  0  0  0
   39.8877  -19.1187   35.4344 C   0  0  0  0  0  0  0  0  0  0  0  0
   41.3423  -18.7295   35.3453 C   0  0  0  0  0  0  0  0  0  0  0  0
   41.9980  -19.7276   34.4161 C   0  0  0  0  0  0  0  0  0  0  0  0
   41.1227  -20.4274   33.5832 N   0  0  0  0  0  0  0  0  0  0  0  0
   39.9807  -19.7549   33.0880 C   0  0  0  0  0  0  0  0  0  0  0  0
   39.2684  -18.8677   34.0846 C   0  0  0  0  0  0  0  0  0  0  0  0
   41.0462  -21.8310   33.6742 C   0  0  0  0  0  0  0  0  0  0  0  0
   42.0097  -22.5909   32.7689 C   0  0  0  0  0  0  0  0  0  0  0  0
   42.0409  -22.7285   34.2442 C   0  0  0  0  0  0  0  0  0  0  0  0
   34.0955  -22.3768   37.4602 O   0  0  0  0  0  0  0  0  0  0  0  0
   32.8580  -22.1357   38.0559 C   0  0  0  0  0  0  0  0  0  0  0  0
   31.7081  -22.3382   37.1061 C   0  0  0  0  0  0  0  0  0  0  0  0
   31.1776  -21.0366   36.5626 C   0  0  0  0  0  0  0  0  0  0  0  0
   30.8697  -21.0723   35.1674 N   0  0  0  0  0  0  0  0  0  0  0  0
   30.6227  -19.7898   34.5727 C   0  0  0  0  0  0  0  0  0  0  0  0
   31.9900  -19.1873   34.3718 C   0  0  0  0  0  0  0  0  0  0  0  0
   32.8069  -20.3961   33.9655 C   0  0  0  0  0  0  0  0  0  0  0  0
   32.0564  -21.5807   34.4797 C   0  0  0  0  0  0  0  0  0  0  0  0
 19 20  1  0  0  0
 20  1  1  0  0  0
  1  2  2  0  0  0
  2  3  1  0  0  0
  3  4  2  0  0  0
  4 21  1  0  0  0
 21 23  1  0  0  0
 23 24  1  0  0  0
 24 25  1  0  0  0
 25 26  1  0  0  0
 26 27  1  0  0  0
 27 28  1  0  0  0
 26 29  1  0  0  0
 29 30  1  0  0  0
 30 31  1  0  0  0
  4  5  1  0  0  0
  5  6  2  0  0  0
  6  7  1  0  0  0
  7  8  2  0  0  0
  8  9  1  0  0  0
  9 10  2  0  0  0
 10 32  1  0  0  0
 32 33  1  0  0  0
 33 34  1  0  0  0
 34 35  1  0  0  0
 35 36  1  0  0  0
 36 37  1  0  0  0
 37 38  1  0  0  0
 38 39  1  0  0  0
 39 40  1  0  0  0
  6 11  1  0  0  0
 11 12  1  0  0  0
 12 13  1  0  0  0
 13 14  1  0  0  0
 14 15  1  0  0  0
 14 16  1  0  0  0
 14 17  1  0  0  0
 17 18  1  0  0  0
 10  1  1  0  0  0
 40 36  1  0  0  0
 18 11  1  0  0  0
  8  3  1  0  0  0
 28 23  1  0  0  0
 31 29  1  0  0  0
 21 22  1  0  0  0
M  END
> <minimizedAffinity>
-7.11772

> <CNNscore>
0.1855309010

> <CNNaffinity>
6.2136344910

> <CNN_VS>
1.1528211832

> <CNNaffinity_variance>
0.7611451149

$$$$
[H]c1c2c(c([H])c(OC([H])([H])[H])c1OC([H])([H])C([H])([H])C([H])([H])N1C([H])([H])C([H])([H])C([H])([H])C1([H])[H])C(C([H])([H])[H])(C([H])([H])[H])C(N([H])[H])=N2


 25 27  0  0  0  0  0  0  0  0999 V2000
   35.9940  -14.1589   37.1811 C   0  0  0  0  0  0  0  0  0  0  0  0
   35.2273  -13.2138   37.8247 C   0  0  0  0  0  0  0  0  0  0  0  0
   33.9245  -12.9174   37.4264 C   0  0  0  0  0  0  0  0  0  0  0  0
   33.3581  -13.5723   36.3599 C   0  0  0  0  0  0  0  0  0  0  0  0
   34.1388  -14.5269   35.7134 C   0  0  0  0  0  0  0  0  0  0  0  0
   35.4284  -14.8287   36.0981 C   0  0  0  0  0  0  0  0  0  0  0  0
   32.0387  -13.0863   36.1689 N   0  0  0  0  0  0  0  0  0  0  0  0
   31.7522  -12.1825   37.0373 C   0  0  0  0  0  0  0  0  0  0  0  0
   30.4965  -11.4641   37.1471 N   0  0  0  0  0  0  0  0  0  0  0  0
   32.9088  -11.9741   37.9283 C   0  0  0  0  0  0  0  0  0  0  0  0
   33.3871  -10.5307   37.8086 C   0  0  0  0  0  0  0  0  0  0  0  0
   32.5602  -12.2359   39.3809 C   0  0  0  0  0  0  0  0  0  0  0  0
   29.7325  -11.8073   37.7682 H   0  0  0  0  0  0  0  0  0  0  0  0
   30.3177  -10.5900   36.6155 H   0  0  0  0  0  0  0  0  0  0  0  0
   38.3223  -13.5259   37.6841 C   0  0  0  0  0  0  0  0  0  0  0  0
   37.2939  -14.4845   37.5450 O   0  0  0  0  0  0  0  0  0  0  0  0
   36.1727  -15.7875   35.4266 O   0  0  0  0  0  0  0  0  0  0  0  0
   35.9815  -17.1390   35.7911 C   0  0  0  0  0  0  0  0  0  0  0  0
   35.6325  -17.9804   34.5676 C   0  0  0  0  0  0  0  0  0  0  0  0
   34.8155  -19.1891   34.9726 C   0  0  0  0  0  0  0  0  0  0  0  0
   33.4582  -19.0369   34.5346 N   0  0  0  0  0  0  0  0  0  0  0  0
   32.5458  -18.6428   35.5703 C   0  0  0  0  0  0  0  0  0  0  0  0
   31.2021  -19.0486   34.9840 C   0  0  0  0  0  0  0  0  0  0  0  0
   31.5309  -20.4021   34.3869 C   0  0  0  0  0  0  0  0  0  0  0  0
   32.9469  -20.2330   33.9335 C   0  0  0  0  0  0  0  0  0  0  0  0
 15 16  1  0  0  0
 16  1  1  0  0  0
  1  2  2  0  0  0
  2  3  1  0  0  0
  3  4  2  0  0  0
  4  5  1  0  0  0
  5  6  2  0  0  0
  6 17  1  0  0  0
 17 18  1  0  0  0
 18 19  1  0  0  0
 19 20  1  0  0  0
 20 21  1  0  0  0
 21 22  1  0  0  0
 22 23  1  0  0  0
 23 24  1  0  0  0
 24 25  1  0  0  0
  4  7  1  0  0  0
  7  8  2  0  0  0
  8  9  1  0  0  0
  8 10  1  0  0  0
 10 11  1  0  0  0
 10 12  1  0  0  0
  6  1  1  0  0  0
 25 21  1  0  0  0
 10  3  1  0  0  0
  9 13  1  0  0  0
  9 14  1  0  0  0
M  END
> <minimizedAffinity>
-6.30503

> <CNNscore>
0.6367632747

> <CNNaffinity>
5.8143625259

> <CNN_VS>
3.7023725510

> <CNNaffinity_variance>
0.0335976854

$$$$
[H]c1c2c(c([H])c(OC([H])([H])[H])c1OC([H])([H])C([H])([H])C([H])([H])N1C([H])([H])C([H])([H])C([H])([H])C1([H])[H])C(C([H])([H])[H])(C([H])([H])[H])C(N([H])[H])=N2


 25 27  0  0  0  0  0  0  0  0999 V2000
   36.5107  -15.0845   37.3818 C   0  0  0  0  0  0  0  0  0  0  0  0
   36.8965  -16.2428   36.7455 C   0  0  0  0  0  0  0  0  0  0  0  0
   36.0159  -16.9901   35.9647 C   0  0  0  0  0  0  0  0  0  0  0  0
   34.7132  -16.5844   35.8052 C   0  0  0  0  0  0  0  0  0  0  0  0
   34.3294  -15.4124   36.4513 C   0  0  0  0  0  0  0  0  0  0  0  0
   35.1913  -14.6647   37.2261 C   0  0  0  0  0  0  0  0  0  0  0  0
   34.0400  -17.5146   34.9715 N   0  0  0  0  0  0  0  0  0  0  0  0
   34.8307  -18.4607   34.6071 C   0  0  0  0  0  0  0  0  0  0  0  0
   34.4902  -19.5845   33.7549 N   0  0  0  0  0  0  0  0  0  0  0  0
   36.1659  -18.2368   35.1920 C   0  0  0  0  0  0  0  0  0  0  0  0
   36.5252  -19.4097   36.0985 C   0  0  0  0  0  0  0  0  0  0  0  0
   37.2392  -18.1184   34.1271 C   0  0  0  0  0  0  0  0  0  0  0  0
   34.6340  -19.5406   32.7231 H   0  0  0  0  0  0  0  0  0  0  0  0
   34.0955  -20.4642   34.1408 H   0  0  0  0  0  0  0  0  0  0  0  0
   38.2520  -13.3588   37.6346 C   0  0  0  0  0  0  0  0  0  0  0  0
   37.3547  -14.3110   38.1675 O   0  0  0  0  0  0  0  0  0  0  0  0
   34.7685  -13.5018   37.8531 O   0  0  0  0  0  0  0  0  0  0  0  0
   34.4188  -12.4056   37.0334 C   0  0  0  0  0  0  0  0  0  0  0  0
   33.2888  -11.6007   37.6673 C   0  0  0  0  0  0  0  0  0  0  0  0
   32.3476  -12.5148   38.4229 C   0  0  0  0  0  0  0  0  0  0  0  0
   30.9952  -12.2876   38.0026 N   0  0  0  0  0  0  0  0  0  0  0  0
   30.7496  -10.9667   37.4972 C   0  0  0  0  0  0  0  0  0  0  0  0
   29.2377  -10.8534   37.6202 C   0  0  0  0  0  0  0  0  0  0  0  0
   28.9991  -11.4761   38.9810 C   0  0  0  0  0  0  0  0  0  0  0  0
   30.0537  -12.5354   39.0541 C   0  0  0  0  0  0  0  0  0  0  0  0
 15 16  1  0  0  0
 16  1  1  0  0  0
  1  2  2  0  0  0
  2  3  1  0  0  0
  3  4  2  0  0  0
  4  5  1  0  0  0
  5  6  2  0  0  0
  6 17  1  0  0  0
 17 18  1  0  0  0
 18 19  1  0  0  0
 19 20  1  0  0  0
 20 21  1  0  0  0
 21 22  1  0  0  0
 22 23  1  0  0  0
 23 24  1  0  0  0
 24 25  1  0  0  0
  4  7  1  0  0  0
  7  8  2  0  0  0
  8  9  1  0  0  0
  8 10  1  0  0  0
 10 11  1  0  0  0
 10 12  1  0  0  0
  6  1  1  0  0  0
 25 21  1  0  0  0
 10  3  1  0  0  0
  9 13  1  0  0  0
  9 14  1  0  0  0
M  END
> <minimizedAffinity>
-7.72756

> <CNNscore>
0.6022409797

> <CNNaffinity>
5.7672572136

> <CNN_VS>
3.4732785225

> <CNNaffinity_variance>
0.1967952400

$$$$
[H]c1c2c(c([H])c(OC([H])([H])[H])c1OC([H])([H])C([H])([H])C([H])([H])N1C([H])([H])C([H])([H])C([H])([H])C1([H])[H])C(C([H])([H])[H])(C([H])([H])[H])C(N([H])[H])=N2


 25 27  0  0  0  0  0  0  0  0999 V2000
   33.6793  -18.5991   35.5012 C   0  0  0  0  0  0  0  0  0  0  0  0
   32.6247  -19.2791   36.0677 C   0  0  0  0  0  0  0  0  0  0  0  0
   32.1101  -20.4490   35.5109 C   0  0  0  0  0  0  0  0  0  0  0  0
   32.6509  -20.9663   34.3589 C   0  0  0  0  0  0  0  0  0  0  0  0
   33.7170  -20.2739   33.7911 C   0  0  0  0  0  0  0  0  0  0  0  0
   34.2347  -19.1160   34.3326 C   0  0  0  0  0  0  0  0  0  0  0  0
   31.9484  -22.1492   34.0112 N   0  0  0  0  0  0  0  0  0  0  0  0
   31.0172  -22.3972   34.8624 C   0  0  0  0  0  0  0  0  0  0  0  0
   30.0992  -23.5201   34.8285 N   0  0  0  0  0  0  0  0  0  0  0  0
   31.0142  -21.3533   35.9042 C   0  0  0  0  0  0  0  0  0  0  0  0
   29.6706  -20.6313   35.8942 C   0  0  0  0  0  0  0  0  0  0  0  0
   31.2269  -21.9334   37.2892 C   0  0  0  0  0  0  0  0  0  0  0  0
   30.3148  -24.4072   35.3323 H   0  0  0  0  0  0  0  0  0  0  0  0
   29.2027  -23.4785   34.3058 H   0  0  0  0  0  0  0  0  0  0  0  0
   33.7755  -16.1415   35.6610 C   0  0  0  0  0  0  0  0  0  0  0  0
   34.2219  -17.4322   36.0227 O   0  0  0  0  0  0  0  0  0  0  0  0
   35.2987  -18.4565   33.7351 O   0  0  0  0  0  0  0  0  0  0  0  0
   36.5707  -19.0672   33.8053 C   0  0  0  0  0  0  0  0  0  0  0  0
   37.4306  -18.3948   34.8707 C   0  0  0  0  0  0  0  0  0  0  0  0
   38.5836  -19.2936   35.2645 C   0  0  0  0  0  0  0  0  0  0  0  0
   39.8128  -18.7827   34.7302 N   0  0  0  0  0  0  0  0  0  0  0  0
   40.1487  -19.2950   33.4321 C   0  0  0  0  0  0  0  0  0  0  0  0
   41.6422  -19.0169   33.3554 C   0  0  0  0  0  0  0  0  0  0  0  0
   42.0938  -19.4127   34.7468 C   0  0  0  0  0  0  0  0  0  0  0  0
   40.9246  -19.0312   35.5994 C   0  0  0  0  0  0  0  0  0  0  0  0
 15 16  1  0  0  0
 16  1  1  0  0  0
  1  2  2  0  0  0
  2  3  1  0  0  0
  3  4  2  0  0  0
  4  5  1  0  0  0
  5  6  2  0  0  0
  6 17  1  0  0  0
 17 18  1  0  0  0
 18 19  1  0  0  0
 19 20  1  0  0  0
 20 21  1  0  0  0
 21 22  1  0  0  0
 22 23  1  0  0  0
 23 24  1  0  0  0
 24 25  1  0  0  0
  4  7  1  0  0  0
  7  8  2  0  0  0
  8  9  1  0  0  0
  8 10  1  0  0  0
 10 11  1  0  0  0
 10 12  1  0  0  0
  6  1  1  0  0  0
 25 21  1  0  0  0
 10  3  1  0  0  0
  9 13  1  0  0  0
  9 14  1  0  0  0
M  END
> <minimizedAffinity>
-4.61871

> <CNNscore>
0.5781187415

> <CNNaffinity>
4.7438631058

> <CNN_VS>
2.7425162792

> <CNNaffinity_variance>
0.1737123877

$$$$
[H]c1c2c(c([H])c(OC([H])([H])[H])c1OC([H])([H])C([H])([H])C([H])([H])N1C([H])([H])C([H])([H])C([H])([H])C1([H])[H])C(C([H])([H])[H])(C([H])([H])[H])C(N([H])[H])=N2


 25 27  0  0  0  0  0  0  0  0999 V2000
   35.9289  -14.1986   37.1978 C   0  0  0  0  0  0  0  0  0  0  0  0
   35.1813  -13.2378   37.8407 C   0  0  0  0  0  0  0  0  0  0  0  0
   33.8856  -12.9141   37.4408 C   0  0  0  0  0  0  0  0  0  0  0  0
   33.3070  -13.5567   36.3734 C   0  0  0  0  0  0  0  0  0  0  0  0
   34.0683  -14.5272   35.7276 C   0  0  0  0  0  0  0  0  0  0  0  0
   35.3508  -14.8561   36.1140 C   0  0  0  0  0  0  0  0  0  0  0  0
   31.9983  -13.0430   36.1808 N   0  0  0  0  0  0  0  0  0  0  0  0
   31.7297  -12.1336   37.0491 C   0  0  0  0  0  0  0  0  0  0  0  0
   30.4892  -11.3891   37.1575 N   0  0  0  0  0  0  0  0  0  0  0  0
   32.8892  -11.9497   37.9417 C   0  0  0  0  0  0  0  0  0  0  0  0
   33.3979  -10.5167   37.8230 C   0  0  0  0  0  0  0  0  0  0  0  0
   32.5333  -12.2045   39.3938 C   0  0  0  0  0  0  0  0  0  0  0  0
   29.7173  -11.7163   37.7774 H   0  0  0  0  0  0  0  0  0  0  0  0
   30.3294  -10.5113   36.6258 H   0  0  0  0  0  0  0  0  0  0  0  0
   38.2709  -13.6155   37.6973 C   0  0  0  0  0  0  0  0  0  0  0  0
   37.2212  -14.5515   37.5633 O   0  0  0  0  0  0  0  0  0  0  0  0
   36.0757  -15.8301   35.4432 O   0  0  0  0  0  0  0  0  0  0  0  0
   35.7561  -17.1812   35.7049 C   0  0  0  0  0  0  0  0  0  0  0  0
   35.8047  -18.0025   34.4205 C   0  0  0  0  0  0  0  0  0  0  0  0
   36.8068  -19.1300   34.5513 C   0  0  0  0  0  0  0  0  0  0  0  0
   38.1425  -18.6072   34.5390 N   0  0  0  0  0  0  0  0  0  0  0  0
   38.8803  -18.9048   33.3442 C   0  0  0  0  0  0  0  0  0  0  0  0
   40.3183  -18.7062   33.7988 C   0  0  0  0  0  0  0  0  0  0  0  0
   40.2958  -19.3640   35.1639 C   0  0  0  0  0  0  0  0  0  0  0  0
   38.9136  -19.0684   35.6553 C   0  0  0  0  0  0  0  0  0  0  0  0
 15 16  1  0  0  0
 16  1  1  0  0  0
  1  2  2  0  0  0
  2  3  1  0  0  0
  3  4  2  0  0  0
  4  5  1  0  0  0
  5  6  2  0  0  0
  6 17  1  0  0  0
 17 18  1  0  0  0
 18 19  1  0  0  0
 19 20  1  0  0  0
 20 21  1  0  0  0
 21 22  1  0  0  0
 22 23  1  0  0  0
 23 24  1  0  0  0
 24 25  1  0  0  0
  4  7  1  0  0  0
  7  8  2  0  0  0
  8  9  1  0  0  0
  8 10  1  0  0  0
 10 11  1  0  0  0
 10 12  1  0  0  0
  6  1  1  0  0  0
 25 21  1  0  0  0
 10  3  1  0  0  0
  9 13  1  0  0  0
  9 14  1  0  0  0
M  END
> <minimizedAffinity>
-6.08709

> <CNNscore>
0.5176029801

> <CNNaffinity>
5.5071792603

> <CNN_VS>
2.8505322933

> <CNNaffinity_variance>
0.0799398944

$$$$
[H]c1c2c(c([H])c(OC([H])([H])[H])c1OC([H])([H])C([H])([H])C([H])([H])N1C([H])([H])C([H])([H])C([H])([H])C1([H])[H])C(C([H])([H])[H])(C([H])([H])[H])C(N([H])[H])=N2


 25 27  0  0  0  0  0  0  0  0999 V2000
   36.0320  -19.1177   36.7021 C   0  0  0  0  0  0  0  0  0  0  0  0
   35.0021  -19.9923   36.4383 C   0  0  0  0  0  0  0  0  0  0  0  0
   33.7678  -19.5619   35.9535 C   0  0  0  0  0  0  0  0  0  0  0  0
   33.5398  -18.2274   35.7211 C   0  0  0  0  0  0  0  0  0  0  0  0
   34.5854  -17.3482   35.9899 C   0  0  0  0  0  0  0  0  0  0  0  0
   35.8105  -17.7619   36.4695 C   0  0  0  0  0  0  0  0  0  0  0  0
   32.2167  -18.0640   35.2349 N   0  0  0  0  0  0  0  0  0  0  0  0
   31.6151  -19.1972   35.1514 C   0  0  0  0  0  0  0  0  0  0  0  0
   30.2552  -19.4164   34.6958 N   0  0  0  0  0  0  0  0  0  0  0  0
   32.5252  -20.2696   35.5949 C   0  0  0  0  0  0  0  0  0  0  0  0
   31.9230  -20.9776   36.8043 C   0  0  0  0  0  0  0  0  0  0  0  0
   32.7546  -21.3039   34.5096 C   0  0  0  0  0  0  0  0  0  0  0  0
   30.0501  -19.6292   33.6959 H   0  0  0  0  0  0  0  0  0  0  0  0
   29.4462  -19.3697   35.3454 H   0  0  0  0  0  0  0  0  0  0  0  0
   38.2924  -20.0399   36.3637 C   0  0  0  0  0  0  0  0  0  0  0  0
   37.2754  -19.5038   37.1848 O   0  0  0  0  0  0  0  0  0  0  0  0
   36.8266  -16.8527   36.7243 O   0  0  0  0  0  0  0  0  0  0  0  0
   36.4896  -15.6727   37.4242 C   0  0  0  0  0  0  0  0  0  0  0  0
   36.7376  -14.4440   36.5551 C   0  0  0  0  0  0  0  0  0  0  0  0
   35.4237  -13.8337   36.1148 C   0  0  0  0  0  0  0  0  0  0  0  0
   34.7120  -13.3220   37.2502 N   0  0  0  0  0  0  0  0  0  0  0  0
   33.4036  -13.8849   37.4277 C   0  0  0  0  0  0  0  0  0  0  0  0
   32.7292  -12.8519   38.3175 C   0  0  0  0  0  0  0  0  0  0  0  0
   33.1957  -11.5574   37.6824 C   0  0  0  0  0  0  0  0  0  0  0  0
   34.5720  -11.8967   37.2028 C   0  0  0  0  0  0  0  0  0  0  0  0
 15 16  1  0  0  0
 16  1  1  0  0  0
  1  2  2  0  0  0
  2  3  1  0  0  0
  3  4  2  0  0  0
  4  5  1  0  0  0
  5  6  2  0  0  0
  6 17  1  0  0  0
 17 18  1  0  0  0
 18 19  1  0  0  0
 19 20  1  0  0  0
 20 21  1  0  0  0
 21 22  1  0  0  0
 22 23  1  0  0  0
 23 24  1  0  0  0
 24 25  1  0  0  0
  4  7  1  0  0  0
  7  8  2  0  0  0
  8  9  1  0  0  0
  8 10  1  0  0  0
 10 11  1  0  0  0
 10 12  1  0  0  0
  6  1  1  0  0  0
 25 21  1  0  0  0
 10  3  1  0  0  0
  9 13  1  0  0  0
  9 14  1  0  0  0
M  END
> <minimizedAffinity>
-5.71168

> <CNNscore>
0.4473110437

> <CNNaffinity>
5.1954636574

> <CNN_VS>
2.3239881992

> <CNNaffinity_variance>
0.3724126220

$$$$
[H]c1c2c(c([H])c(OC([H])([H])[H])c1OC([H])([H])C([H])([H])C([H])([H])N1C([H])([H])C([H])([H])C([H])([H])C1([H])[H])C(C([H])([H])[H])(C([H])([H])[H])C(N([H])[H])=N2


 25 27  0  0  0  0  0  0  0  0999 V2000
   35.9874  -14.1532   37.2197 C   0  0  0  0  0  0  0  0  0  0  0  0
   35.2133  -13.2148   37.8642 C   0  0  0  0  0  0  0  0  0  0  0  0
   33.9175  -12.9096   37.4503 C   0  0  0  0  0  0  0  0  0  0  0  0
   33.3658  -13.5485   36.3666 C   0  0  0  0  0  0  0  0  0  0  0  0
   34.1538  -14.4964   35.7192 C   0  0  0  0  0  0  0  0  0  0  0  0
   35.4366  -14.8069   36.1194 C   0  0  0  0  0  0  0  0  0  0  0  0
   32.0507  -13.0564   36.1622 N   0  0  0  0  0  0  0  0  0  0  0  0
   31.7532  -12.1635   37.0382 C   0  0  0  0  0  0  0  0  0  0  0  0
   30.4978  -11.4433   37.1387 N   0  0  0  0  0  0  0  0  0  0  0  0
   32.8966  -11.9702   37.9494 C   0  0  0  0  0  0  0  0  0  0  0  0
   33.3804  -10.5267   37.8564 C   0  0  0  0  0  0  0  0  0  0  0  0
   32.5254  -12.2506   39.3929 C   0  0  0  0  0  0  0  0  0  0  0  0
   29.7236  -11.7927   37.7434 H   0  0  0  0  0  0  0  0  0  0  0  0
   30.3293  -10.5617   36.6161 H   0  0  0  0  0  0  0  0  0  0  0  0
   38.3335  -13.5478   37.6711 C   0  0  0  0  0  0  0  0  0  0  0  0
   37.2808  -14.4872   37.5989 O   0  0  0  0  0  0  0  0  0  0  0  0
   36.1887  -15.7586   35.4464 O   0  0  0  0  0  0  0  0  0  0  0  0
   35.8013  -17.1110   35.5759 C   0  0  0  0  0  0  0  0  0  0  0  0
   36.6650  -17.8195   36.6145 C   0  0  0  0  0  0  0  0  0  0  0  0
   36.7603  -19.2982   36.3032 C   0  0  0  0  0  0  0  0  0  0  0  0
   35.7963  -20.0282   37.0747 N   0  0  0  0  0  0  0  0  0  0  0  0
   35.5392  -19.4734   38.3733 C   0  0  0  0  0  0  0  0  0  0  0  0
   34.9317  -20.6565   39.1117 C   0  0  0  0  0  0  0  0  0  0  0  0
   35.8294  -21.7890   38.6554 C   0  0  0  0  0  0  0  0  0  0  0  0
   36.1723  -21.3995   37.2517 C   0  0  0  0  0  0  0  0  0  0  0  0
 15 16  1  0  0  0
 16  1  1  0  0  0
  1  2  2  0  0  0
  2  3  1  0  0  0
  3  4  2  0  0  0
  4  5  1  0  0  0
  5  6  2  0  0  0
  6 17  1  0  0  0
 17 18  1  0  0  0
 18 19  1  0  0  0
 19 20  1  0  0  0
 20 21  1  0  0  0
 21 22  1  0  0  0
 22 23  1  0  0  0
 23 24  1  0  0  0
 24 25  1  0  0  0
  4  7  1  0  0  0
  7  8  2  0  0  0
  8  9  1  0  0  0
  8 10  1  0  0  0
 10 11  1  0  0  0
 10 12  1  0  0  0
  6  1  1  0  0  0
 25 21  1  0  0  0
 10  3  1  0  0  0
  9 13  1  0  0  0
  9 14  1  0  0  0
M  END
> <minimizedAffinity>
-5.59253

> <CNNscore>
0.4287316501

> <CNNaffinity>
5.4613862038

> <CNN_VS>
2.3414690495

> <CNNaffinity_variance>
0.0579212680

$$$$
[H]c1c2c(c([H])c(OC([H])([H])[H])c1OC([H])([H])C([H])([H])C([H])([H])N1C([H])([H])C([H])([H])C([H])([H])C1([H])[H])C(C([H])([H])[H])(C([H])([H])[H])C(N([H])[H])=N2


 25 27  0  0  0  0  0  0  0  0999 V2000
   34.7185  -16.8104   35.9742 C   0  0  0  0  0  0  0  0  0  0  0  0
   33.8364  -15.8153   36.3304 C   0  0  0  0  0  0  0  0  0  0  0  0
   34.2347  -14.4874   36.4783 C   0  0  0  0  0  0  0  0  0  0  0  0
   35.5438  -14.1274   36.2690 C   0  0  0  0  0  0  0  0  0  0  0  0
   36.4308  -15.1385   35.9090 C   0  0  0  0  0  0  0  0  0  0  0  0
   36.0486  -16.4552   35.7596 C   0  0  0  0  0  0  0  0  0  0  0  0
   35.6774  -12.7311   36.4834 N   0  0  0  0  0  0  0  0  0  0  0  0
   34.5495  -12.2066   36.8087 C   0  0  0  0  0  0  0  0  0  0  0  0
   34.3058  -10.8068   37.1020 N   0  0  0  0  0  0  0  0  0  0  0  0
   33.5125  -13.2547   36.8420 C   0  0  0  0  0  0  0  0  0  0  0  0
   32.9317  -13.3485   38.2493 C   0  0  0  0  0  0  0  0  0  0  0  0
   32.3760  -12.9591   35.8822 C   0  0  0  0  0  0  0  0  0  0  0  0
   34.0009  -10.1455   36.3558 H   0  0  0  0  0  0  0  0  0  0  0  0
   34.4252  -10.4191   38.0581 H   0  0  0  0  0  0  0  0  0  0  0  0
   33.5693  -18.6117   34.7458 C   0  0  0  0  0  0  0  0  0  0  0  0
   34.3639  -18.1436   35.8160 O   0  0  0  0  0  0  0  0  0  0  0  0
   36.9645  -17.4327   35.3992 O   0  0  0  0  0  0  0  0  0  0  0  0
   37.1332  -17.6963   34.0215 C   0  0  0  0  0  0  0  0  0  0  0  0
   38.1015  -18.8560   33.8118 C   0  0  0  0  0  0  0  0  0  0  0  0
   38.9950  -19.0246   35.0225 C   0  0  0  0  0  0  0  0  0  0  0  0
   40.1803  -19.7484   34.6643 N   0  0  0  0  0  0  0  0  0  0  0  0
   40.4070  -19.8446   33.2502 C   0  0  0  0  0  0  0  0  0  0  0  0
   41.3614  -21.0256   33.1591 C   0  0  0  0  0  0  0  0  0  0  0  0
   40.7434  -21.9891   34.1522 C   0  0  0  0  0  0  0  0  0  0  0  0
   40.1840  -21.0779   35.1991 C   0  0  0  0  0  0  0  0  0  0  0  0
 15 16  1  0  0  0
 16  1  1  0  0  0
  1  2  2  0  0  0
  2  3  1  0  0  0
  3  4  2  0  0  0
  4  5  1  0  0  0
  5  6  2  0  0  0
  6 17  1  0  0  0
 17 18  1  0  0  0
 18 19  1  0  0  0
 19 20  1  0  0  0
 20 21  1  0  0  0
 21 22  1  0  0  0
 22 23  1  0  0  0
 23 24  1  0  0  0
 24 25  1  0  0  0
  4  7  1  0  0  0
  7  8  2  0  0  0
  8  9  1  0  0  0
  8 10  1  0  0  0
 10 11  1  0  0  0
 10 12  1  0  0  0
  6  1  1  0  0  0
 25 21  1  0  0  0
 10  3  1  0  0  0
  9 13  1  0  0  0
  9 14  1  0  0  0
M  END
> <minimizedAffinity>
-5.67902

> <CNNscore>
0.3946627378

> <CNNaffinity>
4.9436025620

> <CNN_VS>
1.9510557652

> <CNNaffinity_variance>
0.2612175047

$$$$
[H]c1c2c(c([H])c(OC([H])([H])[H])c1OC([H])([H])C([H])([H])C([H])([H])N1C([H])([H])C([H])([H])C([H])([H])C1([H])[H])C(C([H])([H])[H])(C([H])([H])[H])C(N([H])[H])=N2


 25 27  0  0  0  0  0  0  0  0999 V2000
   35.4607  -19.0789   36.4451 C   0  0  0  0  0  0  0  0  0  0  0  0
   36.7505  -19.5542   36.3684 C   0  0  0  0  0  0  0  0  0  0  0  0
   37.6152  -19.1929   35.3362 C   0  0  0  0  0  0  0  0  0  0  0  0
   37.1967  -18.3364   34.3471 C   0  0  0  0  0  0  0  0  0  0  0  0
   35.8913  -17.8594   34.4305 C   0  0  0  0  0  0  0  0  0  0  0  0
   35.0269  -18.2095   35.4465 C   0  0  0  0  0  0  0  0  0  0  0  0
   38.2611  -18.1365   33.4303 N   0  0  0  0  0  0  0  0  0  0  0  0
   39.3014  -18.8055   33.7814 C   0  0  0  0  0  0  0  0  0  0  0  0
   40.5737  -18.8436   33.0853 N   0  0  0  0  0  0  0  0  0  0  0  0
   39.0117  -19.5471   35.0229 C   0  0  0  0  0  0  0  0  0  0  0  0
   39.1586  -21.0433   34.7655 C   0  0  0  0  0  0  0  0  0  0  0  0
   39.9586  -19.1668   36.1449 C   0  0  0  0  0  0  0  0  0  0  0  0
   41.3435  -18.1858   33.3341 H   0  0  0  0  0  0  0  0  0  0  0  0
   40.7596  -19.5226   32.3217 H   0  0  0  0  0  0  0  0  0  0  0  0
   34.0045  -20.7005   37.5958 C   0  0  0  0  0  0  0  0  0  0  0  0
   34.5680  -19.4127   37.4549 O   0  0  0  0  0  0  0  0  0  0  0  0
   33.7331  -17.7112   35.4927 O   0  0  0  0  0  0  0  0  0  0  0  0
   32.7805  -18.2800   34.6181 C   0  0  0  0  0  0  0  0  0  0  0  0
   31.5898  -18.8232   35.4016 C   0  0  0  0  0  0  0  0  0  0  0  0
   30.9262  -19.9513   34.6404 C   0  0  0  0  0  0  0  0  0  0  0  0
   31.2000  -21.2061   35.2792 N   0  0  0  0  0  0  0  0  0  0  0  0
   32.0445  -22.0824   34.5181 C   0  0  0  0  0  0  0  0  0  0  0  0
   31.7495  -23.4359   35.1465 C   0  0  0  0  0  0  0  0  0  0  0  0
   30.2441  -23.3706   35.3084 C   0  0  0  0  0  0  0  0  0  0  0  0
   30.0011  -21.9228   35.5987 C   0  0  0  0  0  0  0  0  0  0  0  0
 15 16  1  0  0  0
 16  1  1  0  0  0
  1  2  2  0  0  0
  2  3  1  0  0  0
  3  4  2  0  0  0
  4  5  1  0  0  0
  5  6  2  0  0  0
  6 17  1  0  0  0
 17 18  1  0  0  0
 18 19  1  0  0  0
 19 20  1  0  0  0
 20 21  1  0  0  0
 21 22  1  0  0  0
 22 23  1  0  0  0
 23 24  1  0  0  0
 24 25  1  0  0  0
  4  7  1  0  0  0
  7  8  2  0  0  0
  8  9  1  0  0  0
  8 10  1  0  0  0
 10 11  1  0  0  0
 10 12  1  0  0  0
  6  1  1  0  0  0
 25 21  1  0  0  0
 10  3  1  0  0  0
  9 13  1  0  0  0
  9 14  1  0  0  0
M  END
> <minimizedAffinity>
-5.04868

> <CNNscore>
0.3747001290

> <CNNaffinity>
4.6766138077

> <CNN_VS>
1.7523277998

> <CNNaffinity_variance>
0.4325189590

$$$$
[H]c1c2c(c([H])c(OC([H])([H])[H])c1OC([H])([H])C([H])([H])C([H])([H])N1C([H])([H])C([H])([H])C([H])([H])C1([H])[H])C(C([H])([H])[H])(C([H])([H])[H])C(N([H])[H])=N2


 25 27  0  0  0  0  0  0  0  0999 V2000
   35.9599  -18.2110   34.6616 C   0  0  0  0  0  0  0  0  0  0  0  0
   36.4271  -17.1160   35.3530 C   0  0  0  0  0  0  0  0  0  0  0  0
   35.5708  -16.1554   35.8893 C   0  0  0  0  0  0  0  0  0  0  0  0
   34.2106  -16.2764   35.7401 C   0  0  0  0  0  0  0  0  0  0  0  0
   33.7447  -17.3859   35.0399 C   0  0  0  0  0  0  0  0  0  0  0  0
   34.5818  -18.3426   34.5049 C   0  0  0  0  0  0  0  0  0  0  0  0
   33.5781  -15.1758   36.3743 N   0  0  0  0  0  0  0  0  0  0  0  0
   34.4469  -14.3883   36.9015 C   0  0  0  0  0  0  0  0  0  0  0  0
   34.1674  -13.1651   37.6300 N   0  0  0  0  0  0  0  0  0  0  0  0
   35.8015  -14.9171   36.6554 C   0  0  0  0  0  0  0  0  0  0  0  0
   36.6009  -13.9041   35.8421 C   0  0  0  0  0  0  0  0  0  0  0  0
   36.5510  -15.1807   37.9473 C   0  0  0  0  0  0  0  0  0  0  0  0
   34.0576  -13.1691   38.6668 H   0  0  0  0  0  0  0  0  0  0  0  0
   34.0687  -12.2509   37.1471 H   0  0  0  0  0  0  0  0  0  0  0  0
   37.8162  -19.8237   34.8296 C   0  0  0  0  0  0  0  0  0  0  0  0
   36.7771  -19.1901   34.1122 O   0  0  0  0  0  0  0  0  0  0  0  0
   34.0765  -19.4341   33.8138 O   0  0  0  0  0  0  0  0  0  0  0  0
   32.6821  -19.6549   33.8673 C   0  0  0  0  0  0  0  0  0  0  0  0
   32.3652  -20.8804   34.7185 C   0  0  0  0  0  0  0  0  0  0  0  0
   32.0372  -20.4680   36.1379 C   0  0  0  0  0  0  0  0  0  0  0  0
   30.8226  -21.0988   36.5671 N   0  0  0  0  0  0  0  0  0  0  0  0
   30.8468  -22.5322   36.4972 C   0  0  0  0  0  0  0  0  0  0  0  0
   29.3654  -22.8775   36.5011 C   0  0  0  0  0  0  0  0  0  0  0  0
   28.8095  -21.8282   35.5595 C   0  0  0  0  0  0  0  0  0  0  0  0
   29.6854  -20.6439   35.8233 C   0  0  0  0  0  0  0  0  0  0  0  0
 15 16  1  0  0  0
 16  1  1  0  0  0
  1  2  2  0  0  0
  2  3  1  0  0  0
  3  4  2  0  0  0
  4  5  1  0  0  0
  5  6  2  0  0  0
  6 17  1  0  0  0
 17 18  1  0  0  0
 18 19  1  0  0  0
 19 20  1  0  0  0
 20 21  1  0  0  0
 21 22  1  0  0  0
 22 23  1  0  0  0
 23 24  1  0  0  0
 24 25  1  0  0  0
  4  7  1  0  0  0
  7  8  2  0  0  0
  8  9  1  0  0  0
  8 10  1  0  0  0
 10 11  1  0  0  0
 10 12  1  0  0  0
  6  1  1  0  0  0
 25 21  1  0  0  0
 10  3  1  0  0  0
  9 13  1  0  0  0
  9 14  1  0  0  0
M  END
> <minimizedAffinity>
-6.01531

> <CNNscore>
0.3274232745

> <CNNaffinity>
4.8962941170

> <CNN_VS>
1.6031606197

> <CNNaffinity_variance>
0.4720152915

$$$$
[H]c1c(OC([H])([H])C([H])([H])C([H])([H])N2C([H])([H])C([H])([H])C([H])([H])C2([H])[H])c(OC([H])([H])[H])c([H])c2c(N([H])C3([H])C([H])([H])C([H])([H])N(C([H])(C([H])([H])[H])C([H])([H])[H])C([H])([H])C3([H])[H])nc(N3C([H])([H])C([H])([H])N(C([H])(C([H])([H])[H])C([H])([H])[H])C([H])([H])C([H])([H])C3([H])[H])nc12


 42 46  0  0  0  0  0  0  0  0999 V2000
   35.9501  -14.0371   36.6227 C   0  0  0  0  0  0  0  0  0  0  0  0
   36.4729  -15.2043   36.1322 C   0  0  0  0  0  0  0  0  0  0  0  0
   35.6714  -16.2595   35.8060 C   0  0  0  0  0  0  0  0  0  0  0  0
   36.1300  -17.4540   35.3099 C   0  0  0  0  0  0  0  0  0  0  0  0
   35.2590  -18.4620   35.0076 N   0  0  0  0  0  0  0  0  0  0  0  0
   33.9426  -18.3138   35.1872 C   0  0  0  0  0  0  0  0  0  0  0  0
   33.5002  -17.1323   35.6768 N   0  0  0  0  0  0  0  0  0  0  0  0
   34.3077  -16.1107   35.9883 C   0  0  0  0  0  0  0  0  0  0  0  0
   33.7808  -14.9247   36.4866 C   0  0  0  0  0  0  0  0  0  0  0  0
   34.5714  -13.8607   36.8160 C   0  0  0  0  0  0  0  0  0  0  0  0
   32.9804  -19.3095   34.8834 N   0  0  0  0  0  0  0  0  0  0  0  0
   31.7879  -18.8823   34.1875 C   0  0  0  0  0  0  0  0  0  0  0  0
   30.6310  -19.0978   35.1682 C   0  0  0  0  0  0  0  0  0  0  0  0
   30.1219  -20.4879   34.9804 C   0  0  0  0  0  0  0  0  0  0  0  0
   31.0226  -21.4391   35.5953 N   0  0  0  0  0  0  0  0  0  0  0  0
   32.2399  -21.6242   34.8573 C   0  0  0  0  0  0  0  0  0  0  0  0
   33.3226  -20.6553   35.2945 C   0  0  0  0  0  0  0  0  0  0  0  0
   30.3162  -22.6927   35.7455 C   0  0  0  0  0  0  0  0  0  0  0  0
   30.8149  -23.7506   34.7841 C   0  0  0  0  0  0  0  0  0  0  0  0
   28.8292  -22.4872   35.5871 C   0  0  0  0  0  0  0  0  0  0  0  0
   38.0889  -13.1760   37.4181 C   0  0  0  0  0  0  0  0  0  0  0  0
   36.7705  -12.9456   36.9616 O   0  0  0  0  0  0  0  0  0  0  0  0
   37.4987  -17.6588   35.0938 N   0  0  0  0  0  0  0  0  0  0  0  0
   38.1594  -16.8588   35.0878 H   0  0  0  0  0  0  0  0  0  0  0  0
   38.0815  -18.9688   34.8677 C   0  0  0  0  0  0  0  0  0  0  0  0
   38.8885  -19.4041   36.0604 C   0  0  0  0  0  0  0  0  0  0  0  0
   39.3059  -20.8483   35.7720 C   0  0  0  0  0  0  0  0  0  0  0  0
   40.3137  -20.7789   34.7261 N   0  0  0  0  0  0  0  0  0  0  0  0
   39.7938  -20.2079   33.5086 C   0  0  0  0  0  0  0  0  0  0  0  0
   38.9981  -18.9633   33.6819 C   0  0  0  0  0  0  0  0  0  0  0  0
   40.7607  -22.1281   34.3910 C   0  0  0  0  0  0  0  0  0  0  0  0
   41.6538  -22.1477   33.1940 C   0  0  0  0  0  0  0  0  0  0  0  0
   39.5734  -23.0492   34.2360 C   0  0  0  0  0  0  0  0  0  0  0  0
   34.1150  -12.6730   37.3022 O   0  0  0  0  0  0  0  0  0  0  0  0
   33.0226  -12.4838   38.0942 C   0  0  0  0  0  0  0  0  0  0  0  0
   32.0400  -11.4168   37.6398 C   0  0  0  0  0  0  0  0  0  0  0  0
   30.6147  -11.9888   37.7547 C   0  0  0  0  0  0  0  0  0  0  0  0
   29.6603  -10.9701   37.4286 N   0  0  0  0  0  0  0  0  0  0  0  0
   28.3352  -11.3663   37.7785 C   0  0  0  0  0  0  0  0  0  0  0  0
   28.0498  -10.7375   39.1311 C   0  0  0  0  0  0  0  0  0  0  0  0
   28.8118   -9.4428   39.0609 C   0  0  0  0  0  0  0  0  0  0  0  0
   29.9412   -9.7392   38.1283 C   0  0  0  0  0  0  0  0  0  0  0  0
 21 22  1  0  0  0
 22  1  1  0  0  0
  1  2  2  0  0  0
  2  3  1  0  0  0
  3  4  2  0  0  0
  4 23  1  0  0  0
 23 25  1  0  0  0
 25 26  1  0  0  0
 26 27  1  0  0  0
 27 28  1  0  0  0
 28 29  1  0  0  0
 29 30  1  0  0  0
 28 31  1  0  0  0
 31 32  1  0  0  0
 31 33  1  0  0  0
  4  5  1  0  0  0
  5  6  2  0  0  0
  6  7  1  0  0  0
  7  8  2  0  0  0
  8  9  1  0  0  0
  9 10  2  0  0  0
 10 34  1  0  0  0
 34 35  1  0  0  0
 35 36  1  0  0  0
 36 37  1  0  0  0
 37 38  1  0  0  0
 38 39  1  0  0  0
 39 40  1  0  0  0
 40 41  1  0  0  0
 41 42  1  0  0  0
  6 11  1  0  0  0
 11 12  1  0  0  0
 12 13  1  0  0  0
 13 14  1  0  0  0
 14 15  1  0  0  0
 15 16  1  0  0  0
 16 17  1  0  0  0
 15 18  1  0  0  0
 18 19  1  0  0  0
 18 20  1  0  0  0
 10  1  1  0  0  0
 42 38  1  0  0  0
 17 11  1  0  0  0
  8  3  1  0  0  0
 30 25  1  0  0  0
 23 24  1  0  0  0
M  END
> <minimizedAffinity>
-8.66750

> <CNNscore>
0.7911669612

> <CNNaffinity>
7.5955047607

> <CNN_VS>
6.0093126297

> <CNNaffinity_variance>
0.1503839642

$$$$
[H]c1c(OC([H])([H])C([H])([H])C([H])([H])N2C([H])([H])C([H])([H])C([H])([H])C2([H])[H])c(OC([H])([H])[H])c([H])c2c(N([H])C3([H])C([H])([H])C([H])([H])N(C([H])(C([H])([H])[H])C([H])([H])[H])C([H])([H])C3([H])[H])nc(N3C([H])([H])C([H])([H])N(C([H])(C([H])([H])[H])C([H])([H])[H])C([H])([H])C([H])([H])C3([H])[H])nc12


 42 46  0  0  0  0  0  0  0  0999 V2000
   36.1639  -14.3878   36.5128 C   0  0  0  0  0  0  0  0  0  0  0  0
   36.6197  -15.6202   36.1256 C   0  0  0  0  0  0  0  0  0  0  0  0
   35.7570  -16.6322   35.8193 C   0  0  0  0  0  0  0  0  0  0  0  0
   36.1470  -17.8873   35.4246 C   0  0  0  0  0  0  0  0  0  0  0  0
   35.2175  -18.8456   35.1352 N   0  0  0  0  0  0  0  0  0  0  0  0
   33.9090  -18.5889   35.2295 C   0  0  0  0  0  0  0  0  0  0  0  0
   33.5344  -17.3484   35.6196 N   0  0  0  0  0  0  0  0  0  0  0  0
   34.4013  -16.3711   35.9137 C   0  0  0  0  0  0  0  0  0  0  0  0
   33.9425  -15.1193   36.3072 C   0  0  0  0  0  0  0  0  0  0  0  0
   34.7948  -14.0975   36.6155 C   0  0  0  0  0  0  0  0  0  0  0  0
   32.8897  -19.5284   34.9327 N   0  0  0  0  0  0  0  0  0  0  0  0
   31.7440  -19.0460   34.1956 C   0  0  0  0  0  0  0  0  0  0  0  0
   30.5539  -19.1539   35.1540 C   0  0  0  0  0  0  0  0  0  0  0  0
   29.9578  -20.5127   34.9960 C   0  0  0  0  0  0  0  0  0  0  0  0
   30.7795  -21.5012   35.6608 N   0  0  0  0  0  0  0  0  0  0  0  0
   31.9979  -21.7890   34.9584 C   0  0  0  0  0  0  0  0  0  0  0  0
   33.1326  -20.8800   35.3923 C   0  0  0  0  0  0  0  0  0  0  0  0
   29.9883  -22.7002   35.8316 C   0  0  0  0  0  0  0  0  0  0  0  0
   30.4368  -23.8186   34.9148 C   0  0  0  0  0  0  0  0  0  0  0  0
   28.5221  -22.4026   35.6312 C   0  0  0  0  0  0  0  0  0  0  0  0
   38.0928  -13.5627   37.7569 C   0  0  0  0  0  0  0  0  0  0  0  0
   37.0476  -13.3402   36.8306 O   0  0  0  0  0  0  0  0  0  0  0  0
   37.5052  -18.2067   35.3004 N   0  0  0  0  0  0  0  0  0  0  0  0
   37.9839  -18.1364   34.3825 H   0  0  0  0  0  0  0  0  0  0  0  0
   38.3240  -18.6484   36.4144 C   0  0  0  0  0  0  0  0  0  0  0  0
   39.7158  -18.9822   35.9511 C   0  0  0  0  0  0  0  0  0  0  0  0
   40.5171  -19.2692   37.2233 C   0  0  0  0  0  0  0  0  0  0  0  0
   40.0425  -20.5498   37.7223 N   0  0  0  0  0  0  0  0  0  0  0  0
   38.6436  -20.5124   38.0691 C   0  0  0  0  0  0  0  0  0  0  0  0
   37.7569  -19.8776   37.0576 C   0  0  0  0  0  0  0  0  0  0  0  0
   40.7619  -20.8920   38.9462 C   0  0  0  0  0  0  0  0  0  0  0  0
   39.8399  -21.1356   40.0956 C   0  0  0  0  0  0  0  0  0  0  0  0
   41.7986  -19.8377   39.2557 C   0  0  0  0  0  0  0  0  0  0  0  0
   34.4070  -12.8500   37.0010 O   0  0  0  0  0  0  0  0  0  0  0  0
   33.4503  -12.5433   37.9213 C   0  0  0  0  0  0  0  0  0  0  0  0
   32.5755  -11.3409   37.6060 C   0  0  0  0  0  0  0  0  0  0  0  0
   31.1373  -11.8366   37.3654 C   0  0  0  0  0  0  0  0  0  0  0  0
   30.3110  -11.4731   38.4789 N   0  0  0  0  0  0  0  0  0  0  0  0
   29.2849  -10.5612   38.0906 C   0  0  0  0  0  0  0  0  0  0  0  0
   28.0390  -11.3994   37.8634 C   0  0  0  0  0  0  0  0  0  0  0  0
   28.1875  -12.4949   38.8831 C   0  0  0  0  0  0  0  0  0  0  0  0
   29.6657  -12.6275   39.0573 C   0  0  0  0  0  0  0  0  0  0  0  0
 21 22  1  0  0  0
 22  1  1  0  0  0
  1  2  2  0  0  0
  2  3  1  0  0  0
  3  4  2  0  0  0
  4 23  1  0  0  0
 23 25  1  0  0  0
 25 26  1  0  0  0
 26 27  1  0  0  0
 27 28  1  0  0  0
 28 29  1  0  0  0
 29 30  1  0  0  0
 28 31  1  0  0  0
 31 32  1  0  0  0
 31 33  1  0  0  0
  4  5  1  0  0  0
  5  6  2  0  0  0
  6  7  1  0  0  0
  7  8  2  0  0  0
  8  9  1  0  0  0
  9 10  2  0  0  0
 10 34  1  0  0  0
 34 35  1  0  0  0
 35 36  1  0  0  0
 36 37  1  0  0  0
 37 38  1  0  0  0
 38 39  1  0  0  0
 39 40  1  0  0  0
 40 41  1  0  0  0
 41 42  1  0  0  0
  6 11  1  0  0  0
 11 12  1  0  0  0
 12 13  1  0  0  0
 13 14  1  0  0  0
 14 15  1  0  0  0
 15 16  1  0  0  0
 16 17  1  0  0  0
 15 18  1  0  0  0
 18 19  1  0  0  0
 18 20  1  0  0  0
 10  1  1  0  0  0
 42 38  1  0  0  0
 17 11  1  0  0  0
  8  3  1  0  0  0
 30 25  1  0  0  0
 23 24  1  0  0  0
M  END
> <minimizedAffinity>
-8.40699

> <CNNscore>
0.5679804087

> <CNNaffinity>
7.2407174110

> <CNN_VS>
4.1125855446

> <CNNaffinity_variance>
0.2776591778

$$$$
[H]c1c(OC([H])([H])C([H])([H])C([H])([H])N2C([H])([H])C([H])([H])C([H])([H])C2([H])[H])c(OC([H])([H])[H])c([H])c2c(N([H])C3([H])C([H])([H])C([H])([H])N(C([H])(C([H])([H])[H])C([H])([H])[H])C([H])([H])C3([H])[H])nc(N3C([H])([H])C([H])([H])N(C([H])(C([H])([H])[H])C([H])([H])[H])C([H])([H])C([H])([H])C3([H])[H])nc12


 42 46  0  0  0  0  0  0  0  0999 V2000
   34.0675  -14.5321   36.2440 C   0  0  0  0  0  0  0  0  0  0  0  0
   33.7272  -15.7959   35.8399 C   0  0  0  0  0  0  0  0  0  0  0  0
   34.6778  -16.7466   35.6058 C   0  0  0  0  0  0  0  0  0  0  0  0
   34.4049  -18.0291   35.2009 C   0  0  0  0  0  0  0  0  0  0  0  0
   35.4170  -18.9216   34.9884 N   0  0  0  0  0  0  0  0  0  0  0  0
   36.6947  -18.5716   35.1667 C   0  0  0  0  0  0  0  0  0  0  0  0
   36.9537  -17.3048   35.5660 N   0  0  0  0  0  0  0  0  0  0  0  0
   36.0020  -16.3899   35.7905 C   0  0  0  0  0  0  0  0  0  0  0  0
   36.3436  -15.1063   36.2005 C   0  0  0  0  0  0  0  0  0  0  0  0
   35.4024  -14.1458   36.4393 C   0  0  0  0  0  0  0  0  0  0  0  0
   37.7939  -19.4469   34.9786 N   0  0  0  0  0  0  0  0  0  0  0  0
   37.9496  -20.5225   35.9314 C   0  0  0  0  0  0  0  0  0  0  0  0
   39.2499  -20.2285   36.6859 C   0  0  0  0  0  0  0  0  0  0  0  0
   40.3714  -20.8651   35.9350 C   0  0  0  0  0  0  0  0  0  0  0  0
   40.6960  -20.0838   34.7610 N   0  0  0  0  0  0  0  0  0  0  0  0
   39.7236  -20.2078   33.7122 C   0  0  0  0  0  0  0  0  0  0  0  0
   38.6268  -19.1658   33.8278 C   0  0  0  0  0  0  0  0  0  0  0  0
   42.0053  -20.4909   34.2996 C   0  0  0  0  0  0  0  0  0  0  0  0
   42.1890  -21.9930   34.3486 C   0  0  0  0  0  0  0  0  0  0  0  0
   43.0872  -19.7958   35.0899 C   0  0  0  0  0  0  0  0  0  0  0  0
   32.6504  -13.3105   37.8088 C   0  0  0  0  0  0  0  0  0  0  0  0
   33.0929  -13.5470   36.4866 O   0  0  0  0  0  0  0  0  0  0  0  0
   33.0832  -18.4508   35.0082 N   0  0  0  0  0  0  0  0  0  0  0  0
   32.3639  -17.7928   34.6527 H   0  0  0  0  0  0  0  0  0  0  0  0
   32.6307  -19.8022   35.2836 C   0  0  0  0  0  0  0  0  0  0  0  0
   31.1446  -19.9167   35.0791 C   0  0  0  0  0  0  0  0  0  0  0  0
   30.8197  -21.4044   35.2345 C   0  0  0  0  0  0  0  0  0  0  0  0
   30.9606  -21.7055   36.6500 N   0  0  0  0  0  0  0  0  0  0  0  0
   32.3057  -21.4862   37.1202 C   0  0  0  0  0  0  0  0  0  0  0  0
   32.9222  -20.1998   36.6989 C   0  0  0  0  0  0  0  0  0  0  0  0
   30.6690  -23.1181   36.8783 C   0  0  0  0  0  0  0  0  0  0  0  0
   31.1625  -23.9850   35.7666 C   0  0  0  0  0  0  0  0  0  0  0  0
   29.1948  -23.3115   37.1453 C   0  0  0  0  0  0  0  0  0  0  0  0
   35.6735  -12.8748   36.8474 O   0  0  0  0  0  0  0  0  0  0  0  0
   36.3909  -11.9373   36.1671 C   0  0  0  0  0  0  0  0  0  0  0  0
   35.6857  -10.6185   35.8952 C   0  0  0  0  0  0  0  0  0  0  0  0
   34.3562  -10.6096   36.6726 C   0  0  0  0  0  0  0  0  0  0  0  0
   34.0986   -9.2897   37.1690 N   0  0  0  0  0  0  0  0  0  0  0  0
   34.5207   -8.2922   36.2406 C   0  0  0  0  0  0  0  0  0  0  0  0
   33.2800   -7.8852   35.4650 C   0  0  0  0  0  0  0  0  0  0  0  0
   32.1897   -8.0187   36.4923 C   0  0  0  0  0  0  0  0  0  0  0  0
   32.6912   -9.0826   37.4142 C   0  0  0  0  0  0  0  0  0  0  0  0
 21 22  1  0  0  0
 22  1  1  0  0  0
  1  2  2  0  0  0
  2  3  1  0  0  0
  3  4  2  0  0  0
  4 23  1  0  0  0
 23 25  1  0  0  0
 25 26  1  0  0  0
 26 27  1  0  0  0
 27 28  1  0  0  0
 28 29  1  0  0  0
 29 30  1  0  0  0
 28 31  1  0  0  0
 31 32  1  0  0  0
 31 33  1  0  0  0
  4  5  1  0  0  0
  5  6  2  0  0  0
  6  7  1  0  0  0
  7  8  2  0  0  0
  8  9  1  0  0  0
  9 10  2  0  0  0
 10 34  1  0  0  0
 34 35  1  0  0  0
 35 36  1  0  0  0
 36 37  1  0  0  0
 37 38  1  0  0  0
 38 39  1  0  0  0
 39 40  1  0  0  0
 40 41  1  0  0  0
 41 42  1  0  0  0
  6 11  1  0  0  0
 11 12  1  0  0  0
 12 13  1  0  0  0
 13 14  1  0  0  0
 14 15  1  0  0  0
 15 16  1  0  0  0
 16 17  1  0  0  0
 15 18  1  0  0  0
 18 19  1  0  0  0
 18 20  1  0  0  0
 10  1  1  0  0  0
 42 38  1  0  0  0
 17 11  1  0  0  0
  8  3  1  0  0  0
 30 25  1  0  0  0
 23 24  1  0  0  0
M  END
> <minimizedAffinity>
-6.44416

> <CNNscore>
0.4043698311

> <CNNaffinity>
6.9361634254

> <CNN_VS>
2.8047752380

> <CNNaffinity_variance>
0.0091256639

$$$$
[H]c1c(OC([H])([H])C([H])([H])C([H])([H])N2C([H])([H])C([H])([H])C([H])([H])C2([H])[H])c(OC([H])([H])[H])c([H])c2c(N([H])C3([H])C([H])([H])C([H])([H])N(C([H])(C([H])([H])[H])C([H])([H])[H])C([H])([H])C3([H])[H])nc(N3C([H])([H])C([H])([H])N(C([H])(C([H])([H])[H])C([H])([H])[H])C([H])([H])C([H])([H])C3([H])[H])nc12


 42 46  0  0  0  0  0  0  0  0999 V2000
   38.6777  -20.8065   35.9186 C   0  0  0  0  0  0  0  0  0  0  0  0
   37.3180  -20.6667   35.8285 C   0  0  0  0  0  0  0  0  0  0  0  0
   36.7249  -19.4392   35.8887 C   0  0  0  0  0  0  0  0  0  0  0  0
   35.3713  -19.2299   35.8039 C   0  0  0  0  0  0  0  0  0  0  0  0
   34.8572  -17.9662   35.8727 N   0  0  0  0  0  0  0  0  0  0  0  0
   35.6545  -16.9041   36.0252 C   0  0  0  0  0  0  0  0  0  0  0  0
   36.9877  -17.1207   36.1078 N   0  0  0  0  0  0  0  0  0  0  0  0
   37.5459  -18.3362   36.0447 C   0  0  0  0  0  0  0  0  0  0  0  0
   38.9253  -18.4819   36.1360 C   0  0  0  0  0  0  0  0  0  0  0  0
   39.5318  -19.7043   36.0762 C   0  0  0  0  0  0  0  0  0  0  0  0
   35.1933  -15.5651   36.0908 N   0  0  0  0  0  0  0  0  0  0  0  0
   36.1814  -14.5205   35.9443 C   0  0  0  0  0  0  0  0  0  0  0  0
   36.2323  -13.8000   37.2952 C   0  0  0  0  0  0  0  0  0  0  0  0
   35.2178  -12.7059   37.2714 C   0  0  0  0  0  0  0  0  0  0  0  0
   33.8880  -13.2515   37.4392 N   0  0  0  0  0  0  0  0  0  0  0  0
   33.4036  -13.9308   36.2711 C   0  0  0  0  0  0  0  0  0  0  0  0
   33.7665  -15.4041   36.2788 C   0  0  0  0  0  0  0  0  0  0  0  0
   33.0027  -12.1687   37.8090 C   0  0  0  0  0  0  0  0  0  0  0  0
   31.6746  -12.2413   37.0855 C   0  0  0  0  0  0  0  0  0  0  0  0
   33.6668  -10.8343   37.5708 C   0  0  0  0  0  0  0  0  0  0  0  0
   38.8011  -23.0484   34.9659 C   0  0  0  0  0  0  0  0  0  0  0  0
   39.2957  -22.0689   35.8580 O   0  0  0  0  0  0  0  0  0  0  0  0
   34.4917  -20.3068   35.6344 N   0  0  0  0  0  0  0  0  0  0  0  0
   34.0286  -20.4736   34.7210 H   0  0  0  0  0  0  0  0  0  0  0  0
   34.1693  -21.2454   36.6936 C   0  0  0  0  0  0  0  0  0  0  0  0
   32.7481  -21.7222   36.5662 C   0  0  0  0  0  0  0  0  0  0  0  0
   32.5834  -22.8170   37.6233 C   0  0  0  0  0  0  0  0  0  0  0  0
   32.5677  -22.1403   38.9102 N   0  0  0  0  0  0  0  0  0  0  0  0
   33.8022  -21.4430   39.1716 C   0  0  0  0  0  0  0  0  0  0  0  0
   34.3133  -20.6158   38.0460 C   0  0  0  0  0  0  0  0  0  0  0  0
   32.4172  -23.1265   39.9766 C   0  0  0  0  0  0  0  0  0  0  0  0
   31.0206  -23.6470   40.0733 C   0  0  0  0  0  0  0  0  0  0  0  0
   32.9101  -22.5593   41.2871 C   0  0  0  0  0  0  0  0  0  0  0  0
   40.8760  -19.9108   36.1539 O   0  0  0  0  0  0  0  0  0  0  0  0
   41.8025  -19.6049   35.2030 C   0  0  0  0  0  0  0  0  0  0  0  0
   43.2466  -19.9393   35.5398 C   0  0  0  0  0  0  0  0  0  0  0  0
   43.2777  -20.6221   36.9199 C   0  0  0  0  0  0  0  0  0  0  0  0
   44.1831  -19.9213   37.7825 N   0  0  0  0  0  0  0  0  0  0  0  0
   43.8100  -18.5520   37.9275 C   0  0  0  0  0  0  0  0  0  0  0  0
   43.0260  -18.4631   39.2251 C   0  0  0  0  0  0  0  0  0  0  0  0
   43.6908  -19.5029   40.0846 C   0  0  0  0  0  0  0  0  0  0  0  0
   44.2113  -20.5027   39.1035 C   0  0  0  0  0  0  0  0  0  0  0  0
 21 22  1  0  0  0
 22  1  1  0  0  0
  1  2  2  0  0  0
  2  3  1  0  0  0
  3  4  2  0  0  0
  4 23  1  0  0  0
 23 25  1  0  0  0
 25 26  1  0  0  0
 26 27  1  0  0  0
 27 28  1  0  0  0
 28 29  1  0  0  0
 29 30  1  0  0  0
 28 31  1  0  0  0
 31 32  1  0  0  0
 31 33  1  0  0  0
  4  5  1  0  0  0
  5  6  2  0  0  0
  6  7  1  0  0  0
  7  8  2  0  0  0
  8  9  1  0  0  0
  9 10  2  0  0  0
 10 34  1  0  0  0
 34 35  1  0  0  0
 35 36  1  0  0  0
 36 37  1  0  0  0
 37 38  1  0  0  0
 38 39  1  0  0  0
 39 40  1  0  0  0
 40 41  1  0  0  0
 41 42  1  0  0  0
  6 11  1  0  0  0
 11 12  1  0  0  0
 12 13  1  0  0  0
 13 14  1  0  0  0
 14 15  1  0  0  0
 15 16  1  0  0  0
 16 17  1  0  0  0
 15 18  1  0  0  0
 18 19  1  0  0  0
 18 20  1  0  0  0
 10  1  1  0  0  0
 42 38  1  0  0  0
 17 11  1  0  0  0
  8  3  1  0  0  0
 30 25  1  0  0  0
 23 24  1  0  0  0
M  END
> <minimizedAffinity>
-6.38886

> <CNNscore>
0.1940791160

> <CNNaffinity>
6.3989324570

> <CNN_VS>
1.2418991327

> <CNNaffinity_variance>
0.0928044468

$$$$
[H]c1c(OC([H])([H])C([H])([H])C([H])([H])N2C([H])([H])C([H])([H])C([H])([H])C2([H])[H])c(OC([H])([H])[H])c([H])c2c(N([H])C3([H])C([H])([H])C([H])([H])N(C([H])(C([H])([H])[H])C([H])([H])[H])C([H])([H])C3([H])[H])nc(N3C([H])([H])C([H])([H])N(C([H])(C([H])([H])[H])C([H])([H])[H])C([H])([H])C([H])([H])C3([H])[H])nc12


 42 46  0  0  0  0  0  0  0  0999 V2000
   36.0989  -16.1282   36.5026 C   0  0  0  0  0  0  0  0  0  0  0  0
   36.4716  -17.3895   36.8854 C   0  0  0  0  0  0  0  0  0  0  0  0
   35.6052  -18.4408   36.8055 C   0  0  0  0  0  0  0  0  0  0  0  0
   35.9148  -19.7269   37.1708 C   0  0  0  0  0  0  0  0  0  0  0  0
   34.9878  -20.7240   37.0589 N   0  0  0  0  0  0  0  0  0  0  0  0
   33.7593  -20.4754   36.5942 C   0  0  0  0  0  0  0  0  0  0  0  0
   33.4636  -19.2041   36.2366 N   0  0  0  0  0  0  0  0  0  0  0  0
   34.3327  -18.1892   36.3234 C   0  0  0  0  0  0  0  0  0  0  0  0
   33.9580  -16.9078   35.9361 C   0  0  0  0  0  0  0  0  0  0  0  0
   34.8154  -15.8471   36.0099 C   0  0  0  0  0  0  0  0  0  0  0  0
   32.7523  -21.4610   36.4384 N   0  0  0  0  0  0  0  0  0  0  0  0
   33.0296  -22.5471   35.5260 C   0  0  0  0  0  0  0  0  0  0  0  0
   32.0322  -22.3908   34.3738 C   0  0  0  0  0  0  0  0  0  0  0  0
   30.7934  -23.1413   34.7330 C   0  0  0  0  0  0  0  0  0  0  0  0
   30.0211  -22.3981   35.7053 N   0  0  0  0  0  0  0  0  0  0  0  0
   30.5962  -22.4196   37.0204 C   0  0  0  0  0  0  0  0  0  0  0  0
   31.5605  -21.2685   37.2381 C   0  0  0  0  0  0  0  0  0  0  0  0
   28.6799  -22.9401   35.7212 C   0  0  0  0  0  0  0  0  0  0  0  0
   27.9454  -22.6152   37.0047 C   0  0  0  0  0  0  0  0  0  0  0  0
   28.7061  -24.4307   35.4850 C   0  0  0  0  0  0  0  0  0  0  0  0
   37.3327  -14.5103   37.8477 C   0  0  0  0  0  0  0  0  0  0  0  0
   36.9867  -15.0398   36.5829 O   0  0  0  0  0  0  0  0  0  0  0  0
   37.1903  -20.0439   37.6552 N   0  0  0  0  0  0  0  0  0  0  0  0
   37.3780  -20.0696   38.6754 H   0  0  0  0  0  0  0  0  0  0  0  0
   38.3157  -20.3518   36.7918 C   0  0  0  0  0  0  0  0  0  0  0  0
   39.4930  -19.4750   37.1209 C   0  0  0  0  0  0  0  0  0  0  0  0
   40.6513  -20.0020   36.2702 C   0  0  0  0  0  0  0  0  0  0  0  0
   40.3553  -19.6195   34.8990 N   0  0  0  0  0  0  0  0  0  0  0  0
   39.1346  -20.2188   34.4199 C   0  0  0  0  0  0  0  0  0  0  0  0
   37.9769  -20.1276   35.3492 C   0  0  0  0  0  0  0  0  0  0  0  0
   41.4206  -20.0948   34.0206 C   0  0  0  0  0  0  0  0  0  0  0  0
   40.9836  -20.1789   32.5948 C   0  0  0  0  0  0  0  0  0  0  0  0
   41.9726  -21.4056   34.5296 C   0  0  0  0  0  0  0  0  0  0  0  0
   34.5096  -14.5720   35.6410 O   0  0  0  0  0  0  0  0  0  0  0  0
   33.3080  -13.9476   35.7911 C   0  0  0  0  0  0  0  0  0  0  0  0
   33.1411  -13.1039   37.0445 C   0  0  0  0  0  0  0  0  0  0  0  0
   31.8579  -12.2650   36.8978 C   0  0  0  0  0  0  0  0  0  0  0  0
   31.8493  -11.2236   37.8828 N   0  0  0  0  0  0  0  0  0  0  0  0
   33.1514  -10.6709   38.0682 C   0  0  0  0  0  0  0  0  0  0  0  0
   33.2012   -9.4134   37.2182 C   0  0  0  0  0  0  0  0  0  0  0  0
   31.7871   -8.9070   37.2943 C   0  0  0  0  0  0  0  0  0  0  0  0
   30.9723  -10.1424   37.5013 C   0  0  0  0  0  0  0  0  0  0  0  0
 21 22  1  0  0  0
 22  1  1  0  0  0
  1  2  2  0  0  0
  2  3  1  0  0  0
  3  4  2  0  0  0
  4 23  1  0  0  0
 23 25  1  0  0  0
 25 26  1  0  0  0
 26 27  1  0  0  0
 27 28  1  0  0  0
 28 29  1  0  0  0
 29 30  1  0  0  0
 28 31  1  0  0  0
 31 32  1  0  0  0
 31 33  1  0  0  0
  4  5  1  0  0  0
  5  6  2  0  0  0
  6  7  1  0  0  0
  7  8  2  0  0  0
  8  9  1  0  0  0
  9 10  2  0  0  0
 10 34  1  0  0  0
 34 35  1  0  0  0
 35 36  1  0  0  0
 36 37  1  0  0  0
 37 38  1  0  0  0
 38 39  1  0  0  0
 39 40  1  0  0  0
 40 41  1  0  0  0
 41 42  1  0  0  0
  6 11  1  0  0  0
 11 12  1  0  0  0
 12 13  1  0  0  0
 13 14  1  0  0  0
 14 15  1  0  0  0
 15 16  1  0  0  0
 16 17  1  0  0  0
 15 18  1  0  0  0
 18 19  1  0  0  0
 18 20  1  0  0  0
 10  1  1  0  0  0
 42 38  1  0  0  0
 17 11  1  0  0  0
  8  3  1  0  0  0
 30 25  1  0  0  0
 23 24  1  0  0  0
M  END
> <minimizedAffinity>
-6.71932

> <CNNscore>
0.1610993445

> <CNNaffinity>
6.2984633446

> <CNN_VS>
1.0146783590

> <CNNaffinity_variance>
0.1148521155

$$$$
[H]c1c(OC([H])([H])C([H])([H])C([H])([H])N2C([H])([H])C([H])([H])C([H])([H])C2([H])[H])c(OC([H])([H])[H])c([H])c2c(N([H])C3([H])C([H])([H])C([H])([H])N(C([H])(C([H])([H])[H])C([H])([H])[H])C([H])([H])C3([H])[H])nc(N3C([H])([H])C([H])([H])N(C([H])(C([H])([H])[H])C([H])([H])[H])C([H])([H])C([H])([H])C3([H])[H])nc12


 42 46  0  0  0  0  0  0  0  0999 V2000
   33.9911  -14.9848   35.8863 C   0  0  0  0  0  0  0  0  0  0  0  0
   33.8674  -16.3100   35.5624 C   0  0  0  0  0  0  0  0  0  0  0  0
   34.7884  -17.2299   35.9717 C   0  0  0  0  0  0  0  0  0  0  0  0
   34.7232  -18.5700   35.6832 C   0  0  0  0  0  0  0  0  0  0  0  0
   35.6884  -19.4260   36.1325 N   0  0  0  0  0  0  0  0  0  0  0  0
   36.7184  -18.9838   36.8608 C   0  0  0  0  0  0  0  0  0  0  0  0
   36.7739  -17.6608   37.1400 N   0  0  0  0  0  0  0  0  0  0  0  0
   35.8559  -16.7777   36.7274 C   0  0  0  0  0  0  0  0  0  0  0  0
   35.9782  -15.4321   37.0539 C   0  0  0  0  0  0  0  0  0  0  0  0
   35.0632  -14.5012   36.6518 C   0  0  0  0  0  0  0  0  0  0  0  0
   37.7475  -19.8145   37.3713 N   0  0  0  0  0  0  0  0  0  0  0  0
   39.0614  -19.6695   36.7869 C   0  0  0  0  0  0  0  0  0  0  0  0
   39.3494  -20.9927   36.0707 C   0  0  0  0  0  0  0  0  0  0  0  0
   39.9962  -21.9144   37.0500 C   0  0  0  0  0  0  0  0  0  0  0  0
   39.0092  -22.4473   37.9643 N   0  0  0  0  0  0  0  0  0  0  0  0
   38.5606  -21.4887   38.9341 C   0  0  0  0  0  0  0  0  0  0  0  0
   37.3571  -20.7051   38.4444 C   0  0  0  0  0  0  0  0  0  0  0  0
   39.5798  -23.6076   38.6133 C   0  0  0  0  0  0  0  0  0  0  0  0
   39.5488  -23.4934   40.1228 C   0  0  0  0  0  0  0  0  0  0  0  0
   40.9877  -23.8504   38.1262 C   0  0  0  0  0  0  0  0  0  0  0  0
   32.3414  -14.2282   34.2568 C   0  0  0  0  0  0  0  0  0  0  0  0
   33.0457  -14.0310   35.4672 O   0  0  0  0  0  0  0  0  0  0  0  0
   33.6605  -19.0875   34.9317 N   0  0  0  0  0  0  0  0  0  0  0  0
   33.7147  -19.1285   33.8963 H   0  0  0  0  0  0  0  0  0  0  0  0
   32.4362  -19.5915   35.5265 C   0  0  0  0  0  0  0  0  0  0  0  0
   32.4402  -21.0956   35.5562 C   0  0  0  0  0  0  0  0  0  0  0  0
   31.1919  -21.4965   36.3462 C   0  0  0  0  0  0  0  0  0  0  0  0
   30.0561  -21.2078   35.4854 N   0  0  0  0  0  0  0  0  0  0  0  0
   29.9581  -19.8047   35.1687 C   0  0  0  0  0  0  0  0  0  0  0  0
   31.2307  -19.1599   34.7477 C   0  0  0  0  0  0  0  0  0  0  0  0
   28.8194  -21.5620   36.1766 C   0  0  0  0  0  0  0  0  0  0  0  0
   29.0105  -21.6826   37.6530 C   0  0  0  0  0  0  0  0  0  0  0  0
   28.2212  -22.8103   35.5717 C   0  0  0  0  0  0  0  0  0  0  0  0
   35.1250  -13.1722   36.9440 O   0  0  0  0  0  0  0  0  0  0  0  0
   34.3205  -12.4904   37.8067 C   0  0  0  0  0  0  0  0  0  0  0  0
   33.8799  -11.1052   37.3623 C   0  0  0  0  0  0  0  0  0  0  0  0
   32.5659  -10.7579   38.0867 C   0  0  0  0  0  0  0  0  0  0  0  0
   31.4746  -11.4410   37.4564 N   0  0  0  0  0  0  0  0  0  0  0  0
   30.9089  -12.4266   38.3189 C   0  0  0  0  0  0  0  0  0  0  0  0
   29.6974  -11.7774   38.9646 C   0  0  0  0  0  0  0  0  0  0  0  0
   29.1920  -10.8678   37.8787 C   0  0  0  0  0  0  0  0  0  0  0  0
   30.4175  -10.5272   37.0943 C   0  0  0  0  0  0  0  0  0  0  0  0
 21 22  1  0  0  0
 22  1  1  0  0  0
  1  2  2  0  0  0
  2  3  1  0  0  0
  3  4  2  0  0  0
  4 23  1  0  0  0
 23 25  1  0  0  0
 25 26  1  0  0  0
 26 27  1  0  0  0
 27 28  1  0  0  0
 28 29  1  0  0  0
 29 30  1  0  0  0
 28 31  1  0  0  0
 31 32  1  0  0  0
 31 33  1  0  0  0
  4  5  1  0  0  0
  5  6  2  0  0  0
  6  7  1  0  0  0
  7  8  2  0  0  0
  8  9  1  0  0  0
  9 10  2  0  0  0
 10 34  1  0  0  0
 34 35  1  0  0  0
 35 36  1  0  0  0
 36 37  1  0  0  0
 37 38  1  0  0  0
 38 39  1  0  0  0
 39 40  1  0  0  0
 40 41  1  0  0  0
 41 42  1  0  0  0
  6 11  1  0  0  0
 11 12  1  0  0  0
 12 13  1  0  0  0
 13 14  1  0  0  0
 14 15  1  0  0  0
 15 16  1  0  0  0
 16 17  1  0  0  0
 15 18  1  0  0  0
 18 19  1  0  0  0
 18 20  1  0  0  0
 10  1  1  0  0  0
 42 38  1  0  0  0
 17 11  1  0  0  0
  8  3  1  0  0  0
 30 25  1  0  0  0
 23 24  1  0  0  0
M  END
> <minimizedAffinity>
-5.56621

> <CNNscore>
0.1555956900

> <CNNaffinity>
6.3872437477

> <CNN_VS>
0.9938275814

> <CNNaffinity_variance>
0.1377404481

$$$$
[H]c1c(OC([H])([H])C([H])([H])C([H])([H])N2C([H])([H])C([H])([H])C([H])([H])C2([H])[H])c(OC([H])([H])[H])c([H])c2c(N([H])C3([H])C([H])([H])C([H])([H])N(C([H])(C([H])([H])[H])C([H])([H])[H])C([H])([H])C3([H])[H])nc(N3C([H])([H])C([H])([H])N(C([H])(C([H])([H])[H])C([H])([H])[H])C([H])([H])C([H])([H])C3([H])[H])nc12


 42 46  0  0  0  0  0  0  0  0999 V2000
   34.5013  -15.7352   36.1892 C   0  0  0  0  0  0  0  0  0  0  0  0
   34.5994  -16.9837   35.6344 C   0  0  0  0  0  0  0  0  0  0  0  0
   35.7245  -17.7411   35.7848 C   0  0  0  0  0  0  0  0  0  0  0  0
   35.8868  -18.9974   35.2568 C   0  0  0  0  0  0  0  0  0  0  0  0
   37.0472  -19.6905   35.4547 N   0  0  0  0  0  0  0  0  0  0  0  0
   38.0521  -19.1662   36.1634 C   0  0  0  0  0  0  0  0  0  0  0  0
   37.8825  -17.9269   36.6799 N   0  0  0  0  0  0  0  0  0  0  0  0
   36.7671  -17.2037   36.5190 C   0  0  0  0  0  0  0  0  0  0  0  0
   36.6640  -15.9362   37.0805 C   0  0  0  0  0  0  0  0  0  0  0  0
   35.5435  -15.1682   36.9386 C   0  0  0  0  0  0  0  0  0  0  0  0
   39.2772  -19.8315   36.4205 N   0  0  0  0  0  0  0  0  0  0  0  0
   40.4347  -19.0044   36.6755 C   0  0  0  0  0  0  0  0  0  0  0  0
   41.3895  -19.2475   35.5025 C   0  0  0  0  0  0  0  0  0  0  0  0
   42.2636  -20.4049   35.8532 C   0  0  0  0  0  0  0  0  0  0  0  0
   41.5322  -21.6458   35.7145 N   0  0  0  0  0  0  0  0  0  0  0  0
   40.5743  -21.8581   36.7624 C   0  0  0  0  0  0  0  0  0  0  0  0
   39.2154  -21.2783   36.4165 C   0  0  0  0  0  0  0  0  0  0  0  0
   42.4908  -22.7282   35.6665 C   0  0  0  0  0  0  0  0  0  0  0  0
   43.6702  -22.4908   36.5858 C   0  0  0  0  0  0  0  0  0  0  0  0
   42.9579  -22.9622   34.2503 C   0  0  0  0  0  0  0  0  0  0  0  0
   33.0100  -14.4342   34.7636 C   0  0  0  0  0  0  0  0  0  0  0  0
   33.3447  -14.9487   36.0376 O   0  0  0  0  0  0  0  0  0  0  0  0
   34.8619  -19.5974   34.5140 N   0  0  0  0  0  0  0  0  0  0  0  0
   34.9732  -19.7630   33.4957 H   0  0  0  0  0  0  0  0  0  0  0  0
   33.6011  -20.0211   35.0950 C   0  0  0  0  0  0  0  0  0  0  0  0
   33.8367  -20.9347   36.2668 C   0  0  0  0  0  0  0  0  0  0  0  0
   32.4581  -21.1745   36.8873 C   0  0  0  0  0  0  0  0  0  0  0  0
   31.7407  -22.0373   35.9626 N   0  0  0  0  0  0  0  0  0  0  0  0
   31.5539  -21.4164   34.6749 C   0  0  0  0  0  0  0  0  0  0  0  0
   32.7645  -20.7695   34.1019 C   0  0  0  0  0  0  0  0  0  0  0  0
   30.4052  -22.3090   36.4872 C   0  0  0  0  0  0  0  0  0  0  0  0
   29.4716  -21.1616   36.2809 C   0  0  0  0  0  0  0  0  0  0  0  0
   30.4876  -22.7282   37.9361 C   0  0  0  0  0  0  0  0  0  0  0  0
   35.3806  -13.9239   37.4684 O   0  0  0  0  0  0  0  0  0  0  0  0
   36.0032  -12.7806   37.0667 C   0  0  0  0  0  0  0  0  0  0  0  0
   35.0975  -11.6338   36.6479 C   0  0  0  0  0  0  0  0  0  0  0  0
   33.6417  -12.0247   36.9639 C   0  0  0  0  0  0  0  0  0  0  0  0
   33.1012  -11.1199   37.9355 N   0  0  0  0  0  0  0  0  0  0  0  0
   33.5922   -9.7943   37.7430 C   0  0  0  0  0  0  0  0  0  0  0  0
   32.5250   -9.0597   36.9507 C   0  0  0  0  0  0  0  0  0  0  0  0
   31.2521   -9.6822   37.4548 C   0  0  0  0  0  0  0  0  0  0  0  0
   31.6608  -11.0614   37.8595 C   0  0  0  0  0  0  0  0  0  0  0  0
 21 22  1  0  0  0
 22  1  1  0  0  0
  1  2  2  0  0  0
  2  3  1  0  0  0
  3  4  2  0  0  0
  4 23  1  0  0  0
 23 25  1  0  0  0
 25 26  1  0  0  0
 26 27  1  0  0  0
 27 28  1  0  0  0
 28 29  1  0  0  0
 29 30  1  0  0  0
 28 31  1  0  0  0
 31 32  1  0  0  0
 31 33  1  0  0  0
  4  5  1  0  0  0
  5  6  2  0  0  0
  6  7  1  0  0  0
  7  8  2  0  0  0
  8  9  1  0  0  0
  9 10  2  0  0  0
 10 34  1  0  0  0
 34 35  1  0  0  0
 35 36  1  0  0  0
 36 37  1  0  0  0
 37 38  1  0  0  0
 38 39  1  0  0  0
 39 40  1  0  0  0
 40 41  1  0  0  0
 41 42  1  0  0  0
  6 11  1  0  0  0
 11 12  1  0  0  0
 12 13  1  0  0  0
 13 14  1  0  0  0
 14 15  1  0  0  0
 15 16  1  0  0  0
 16 17  1  0  0  0
 15 18  1  0  0  0
 18 19  1  0  0  0
 18 20  1  0  0  0
 10  1  1  0  0  0
 42 38  1  0  0  0
 17 11  1  0  0  0
  8  3  1  0  0  0
 30 25  1  0  0  0
 23 24  1  0  0  0
M  END
> <minimizedAffinity>
-5.98944

> <CNNscore>
0.1524418741

> <CNNaffinity>
6.3279051781

> <CNN_VS>
0.9646376967

> <CNNaffinity_variance>
0.1671428531

$$$$
[H]c1c(OC([H])([H])C([H])([H])C([H])([H])N2C([H])([H])C([H])([H])C([H])([H])C2([H])[H])c(OC([H])([H])[H])c([H])c2c(N([H])C3([H])C([H])([H])C([H])([H])N(C([H])(C([H])([H])[H])C([H])([H])[H])C([H])([H])C3([H])[H])nc(N3C([H])([H])C([H])([H])N(C([H])(C([H])([H])[H])C([H])([H])[H])C([H])([H])C([H])([H])C3([H])[H])nc12


 42 46  0  0  0  0  0  0  0  0999 V2000
   38.6870  -20.9552   36.6698 C   0  0  0  0  0  0  0  0  0  0  0  0
   37.3803  -20.8100   36.2852 C   0  0  0  0  0  0  0  0  0  0  0  0
   36.7912  -19.5807   36.2219 C   0  0  0  0  0  0  0  0  0  0  0  0
   35.4894  -19.3661   35.8443 C   0  0  0  0  0  0  0  0  0  0  0  0
   34.9756  -18.1009   35.8069 N   0  0  0  0  0  0  0  0  0  0  0  0
   35.7226  -17.0425   36.1369 C   0  0  0  0  0  0  0  0  0  0  0  0
   37.0049  -17.2644   36.5079 N   0  0  0  0  0  0  0  0  0  0  0  0
   37.5606  -18.4816   36.5608 C   0  0  0  0  0  0  0  0  0  0  0  0
   38.8863  -18.6328   36.9508 C   0  0  0  0  0  0  0  0  0  0  0  0
   39.4884  -19.8570   37.0174 C   0  0  0  0  0  0  0  0  0  0  0  0
   35.2613  -15.7023   36.1085 N   0  0  0  0  0  0  0  0  0  0  0  0
   36.2637  -14.6613   36.0877 C   0  0  0  0  0  0  0  0  0  0  0  0
   36.1192  -13.9144   37.4173 C   0  0  0  0  0  0  0  0  0  0  0  0
   35.1227  -12.8205   37.2243 C   0  0  0  0  0  0  0  0  0  0  0  0
   33.7808  -13.3620   37.2068 N   0  0  0  0  0  0  0  0  0  0  0  0
   33.4699  -14.0640   35.9938 C   0  0  0  0  0  0  0  0  0  0  0  0
   33.8229  -15.5370   36.0830 C   0  0  0  0  0  0  0  0  0  0  0  0
   32.8547  -12.2717   37.4222 C   0  0  0  0  0  0  0  0  0  0  0  0
   33.5640  -10.9628   37.6979 C   0  0  0  0  0  0  0  0  0  0  0  0
   31.8945  -12.6028   38.5389 C   0  0  0  0  0  0  0  0  0  0  0  0
   38.9645  -23.1050   37.7879 C   0  0  0  0  0  0  0  0  0  0  0  0
   39.3005  -22.2194   36.7378 O   0  0  0  0  0  0  0  0  0  0  0  0
   34.6659  -20.4388   35.4796 N   0  0  0  0  0  0  0  0  0  0  0  0
   35.0113  -21.1773   34.8377 H   0  0  0  0  0  0  0  0  0  0  0  0
   33.3044  -20.5954   35.9577 C   0  0  0  0  0  0  0  0  0  0  0  0
   33.1018  -21.9656   36.5447 C   0  0  0  0  0  0  0  0  0  0  0  0
   31.6987  -21.9498   37.1563 C   0  0  0  0  0  0  0  0  0  0  0  0
   30.7683  -21.9521   36.0389 N   0  0  0  0  0  0  0  0  0  0  0  0
   30.9124  -20.7810   35.2104 C   0  0  0  0  0  0  0  0  0  0  0  0
   32.3115  -20.4301   34.8473 C   0  0  0  0  0  0  0  0  0  0  0  0
   29.3990  -21.9326   36.5461 C   0  0  0  0  0  0  0  0  0  0  0  0
   28.5696  -23.0380   35.9794 C   0  0  0  0  0  0  0  0  0  0  0  0
   28.7767  -20.5748   36.3202 C   0  0  0  0  0  0  0  0  0  0  0  0
   40.7825  -20.0688   37.3861 O   0  0  0  0  0  0  0  0  0  0  0  0
   41.7808  -19.1422   37.4205 C   0  0  0  0  0  0  0  0  0  0  0  0
   42.7374  -19.1411   36.2392 C   0  0  0  0  0  0  0  0  0  0  0  0
   42.3474  -20.2956   35.2974 C   0  0  0  0  0  0  0  0  0  0  0  0
   42.0922  -19.7797   33.9846 N   0  0  0  0  0  0  0  0  0  0  0  0
   41.1913  -20.6170   33.2617 C   0  0  0  0  0  0  0  0  0  0  0  0
   39.8166  -19.9905   33.4159 C   0  0  0  0  0  0  0  0  0  0  0  0
   40.1274  -18.5198   33.4653 C   0  0  0  0  0  0  0  0  0  0  0  0
   41.5058  -18.4617   34.0395 C   0  0  0  0  0  0  0  0  0  0  0  0
 21 22  1  0  0  0
 22  1  1  0  0  0
  1  2  2  0  0  0
  2  3  1  0  0  0
  3  4  2  0  0  0
  4 23  1  0  0  0
 23 25  1  0  0  0
 25 26  1  0  0  0
 26 27  1  0  0  0
 27 28  1  0  0  0
 28 29  1  0  0  0
 29 30  1  0  0  0
 28 31  1  0  0  0
 31 32  1  0  0  0
 31 33  1  0  0  0
  4  5  1  0  0  0
  5  6  2  0  0  0
  6  7  1  0  0  0
  7  8  2  0  0  0
  8  9  1  0  0  0
  9 10  2  0  0  0
 10 34  1  0  0  0
 34 35  1  0  0  0
 35 36  1  0  0  0
 36 37  1  0  0  0
 37 38  1  0  0  0
 38 39  1  0  0  0
 39 40  1  0  0  0
 40 41  1  0  0  0
 41 42  1  0  0  0
  6 11  1  0  0  0
 11 12  1  0  0  0
 12 13  1  0  0  0
 13 14  1  0  0  0
 14 15  1  0  0  0
 15 16  1  0  0  0
 16 17  1  0  0  0
 15 18  1  0  0  0
 18 19  1  0  0  0
 18 20  1  0  0  0
 10  1  1  0  0  0
 42 38  1  0  0  0
 17 11  1  0  0  0
  8  3  1  0  0  0
 30 25  1  0  0  0
 23 24  1  0  0  0
M  END
> <minimizedAffinity>
-7.20991

> <CNNscore>
0.1505063921

> <CNNaffinity>
6.5061850548

> <CNN_VS>
0.9792224169

> <CNNaffinity_variance>
0.3466848731

$$$$
[H]c1c(OC([H])([H])C([H])([H])C([H])([H])N2C([H])([H])C([H])([H])C([H])([H])C2([H])[H])c(OC([H])([H])[H])c([H])c2c(N([H])C3([H])C([H])([H])C([H])([H])N(C([H])(C([H])([H])[H])C([H])([H])[H])C([H])([H])C3([H])[H])nc(N3C([H])([H])C([H])([H])N(C([H])(C([H])([H])[H])C([H])([H])[H])C([H])([H])C([H])([H])C3([H])[H])nc12


 42 46  0  0  0  0  0  0  0  0999 V2000
   38.5481  -20.5877   35.7315 C   0  0  0  0  0  0  0  0  0  0  0  0
   37.2370  -20.3931   35.3858 C   0  0  0  0  0  0  0  0  0  0  0  0
   36.6464  -19.1684   35.5020 C   0  0  0  0  0  0  0  0  0  0  0  0
   35.3402  -18.9060   35.1728 C   0  0  0  0  0  0  0  0  0  0  0  0
   34.8251  -17.6493   35.3190 N   0  0  0  0  0  0  0  0  0  0  0  0
   35.5749  -16.6459   35.7857 C   0  0  0  0  0  0  0  0  0  0  0  0
   36.8616  -16.9146   36.1075 N   0  0  0  0  0  0  0  0  0  0  0  0
   37.4188  -18.1259   35.9830 C   0  0  0  0  0  0  0  0  0  0  0  0
   38.7489  -18.3272   36.3331 C   0  0  0  0  0  0  0  0  0  0  0  0
   39.3527  -19.5472   36.2206 C   0  0  0  0  0  0  0  0  0  0  0  0
   35.1124  -15.3160   35.9506 N   0  0  0  0  0  0  0  0  0  0  0  0
   36.0953  -14.2606   35.8567 C   0  0  0  0  0  0  0  0  0  0  0  0
   36.1705  -13.6331   37.2521 C   0  0  0  0  0  0  0  0  0  0  0  0
   35.1534  -12.5433   37.3217 C   0  0  0  0  0  0  0  0  0  0  0  0
   33.8282  -13.1034   37.4772 N   0  0  0  0  0  0  0  0  0  0  0  0
   33.3230  -13.7037   36.2750 C   0  0  0  0  0  0  0  0  0  0  0  0
   33.6891  -15.1729   36.1760 C   0  0  0  0  0  0  0  0  0  0  0  0
   32.9479  -12.0512   37.9362 C   0  0  0  0  0  0  0  0  0  0  0  0
   31.5619  -12.1608   37.3367 C   0  0  0  0  0  0  0  0  0  0  0  0
   33.5463  -10.6952   37.6503 C   0  0  0  0  0  0  0  0  0  0  0  0
   39.7375  -22.2347   34.3818 C   0  0  0  0  0  0  0  0  0  0  0  0
   39.1632  -21.8475   35.6148 O   0  0  0  0  0  0  0  0  0  0  0  0
   34.5132  -19.9190   34.6707 N   0  0  0  0  0  0  0  0  0  0  0  0
   34.7789  -20.4445   33.8163 H   0  0  0  0  0  0  0  0  0  0  0  0
   33.2567  -20.3003   35.2890 C   0  0  0  0  0  0  0  0  0  0  0  0
   33.4935  -21.2504   36.4311 C   0  0  0  0  0  0  0  0  0  0  0  0
   32.1291  -21.4438   37.0974 C   0  0  0  0  0  0  0  0  0  0  0  0
   31.3406  -22.2525   36.1816 N   0  0  0  0  0  0  0  0  0  0  0  0
   31.1351  -21.5941   34.9156 C   0  0  0  0  0  0  0  0  0  0  0  0
   32.3518  -20.9878   34.3119 C   0  0  0  0  0  0  0  0  0  0  0  0
   30.0143  -22.4774   36.7498 C   0  0  0  0  0  0  0  0  0  0  0  0
   30.0144  -23.5629   37.7756 C   0  0  0  0  0  0  0  0  0  0  0  0
   29.0095  -22.7276   35.6498 C   0  0  0  0  0  0  0  0  0  0  0  0
   40.6511  -19.8056   36.5414 O   0  0  0  0  0  0  0  0  0  0  0  0
   41.6385  -18.8878   36.7390 C   0  0  0  0  0  0  0  0  0  0  0  0
   42.8670  -19.3740   37.4907 C   0  0  0  0  0  0  0  0  0  0  0  0
   42.8167  -18.8065   38.9216 C   0  0  0  0  0  0  0  0  0  0  0  0
   42.6955  -19.8823   39.8612 N   0  0  0  0  0  0  0  0  0  0  0  0
   43.3253  -19.5645   41.1012 C   0  0  0  0  0  0  0  0  0  0  0  0
   42.2216  -19.0744   42.0220 C   0  0  0  0  0  0  0  0  0  0  0  0
   41.0386  -19.8940   41.5851 C   0  0  0  0  0  0  0  0  0  0  0  0
   41.3124  -20.1830   40.1448 C   0  0  0  0  0  0  0  0  0  0  0  0
 21 22  1  0  0  0
 22  1  1  0  0  0
  1  2  2  0  0  0
  2  3  1  0  0  0
  3  4  2  0  0  0
  4 23  1  0  0  0
 23 25  1  0  0  0
 25 26  1  0  0  0
 26 27  1  0  0  0
 27 28  1  0  0  0
 28 29  1  0  0  0
 29 30  1  0  0  0
 28 31  1  0  0  0
 31 32  1  0  0  0
 31 33  1  0  0  0
  4  5  1  0  0  0
  5  6  2  0  0  0
  6  7  1  0  0  0
  7  8  2  0  0  0
  8  9  1  0  0  0
  9 10  2  0  0  0
 10 34  1  0  0  0
 34 35  1  0  0  0
 35 36  1  0  0  0
 36 37  1  0  0  0
 37 38  1  0  0  0
 38 39  1  0  0  0
 39 40  1  0  0  0
 40 41  1  0  0  0
 41 42  1  0  0  0
  6 11  1  0  0  0
 11 12  1  0  0  0
 12 13  1  0  0  0
 13 14  1  0  0  0
 14 15  1  0  0  0
 15 16  1  0  0  0
 16 17  1  0  0  0
 15 18  1  0  0  0
 18 19  1  0  0  0
 18 20  1  0  0  0
 10  1  1  0  0  0
 42 38  1  0  0  0
 17 11  1  0  0  0
  8  3  1  0  0  0
 30 25  1  0  0  0
 23 24  1  0  0  0
M  END
> <minimizedAffinity>
-7.05020

> <CNNscore>
0.1312444508

> <CNNaffinity>
6.4273729324

> <CNN_VS>
0.8435570598

> <CNNaffinity_variance>
0.1718348414

$$$$
[H]c1c2c(c([H])c(OC([H])([H])[H])c1OC([H])([H])C([H])([H])C([H])([H])N1C([H])([H])C([H])(F)C1([H])[H])C1(C(N([H])[H])=N2)C([H])([H])C([H])([H])C1([H])[H]


 26 29  0  0  0  0  0  0  0  0999 V2000
   36.3671  -14.9826   37.4019 C   0  0  0  0  0  0  0  0  0  0  0  0
   36.8456  -16.1328   36.8210 C   0  0  0  0  0  0  0  0  0  0  0  0
   35.9836  -16.8807   36.0220 C   0  0  0  0  0  0  0  0  0  0  0  0
   34.6832  -16.4916   35.8099 C   0  0  0  0  0  0  0  0  0  0  0  0
   34.2019  -15.3201   36.4040 C   0  0  0  0  0  0  0  0  0  0  0  0
   35.0427  -14.5862   37.1864 C   0  0  0  0  0  0  0  0  0  0  0  0
   34.0687  -17.4564   34.9580 N   0  0  0  0  0  0  0  0  0  0  0  0
   34.8910  -18.3892   34.6426 C   0  0  0  0  0  0  0  0  0  0  0  0
   34.5952  -19.5198   33.7960 N   0  0  0  0  0  0  0  0  0  0  0  0
   36.1709  -18.1249   35.2778 C   0  0  0  0  0  0  0  0  0  0  0  0
   36.7962  -19.2634   36.0389 C   0  0  0  0  0  0  0  0  0  0  0  0
   37.6424  -19.5584   34.8218 C   0  0  0  0  0  0  0  0  0  0  0  0
   37.3599  -18.1523   34.3405 C   0  0  0  0  0  0  0  0  0  0  0  0
   34.7750  -20.4926   34.1040 H   0  0  0  0  0  0  0  0  0  0  0  0
   34.1930  -19.3806   32.8573 H   0  0  0  0  0  0  0  0  0  0  0  0
   38.1773  -13.4143   37.5937 C   0  0  0  0  0  0  0  0  0  0  0  0
   37.1850  -14.2104   38.2010 O   0  0  0  0  0  0  0  0  0  0  0  0
   34.6248  -13.4129   37.8058 O   0  0  0  0  0  0  0  0  0  0  0  0
   34.3456  -12.2294   37.0996 C   0  0  0  0  0  0  0  0  0  0  0  0
   33.2202  -11.5102   37.8459 C   0  0  0  0  0  0  0  0  0  0  0  0
   32.0941  -12.4831   38.1355 C   0  0  0  0  0  0  0  0  0  0  0  0
   30.9302  -12.0647   37.4234 N   0  0  0  0  0  0  0  0  0  0  0  0
   29.7542  -12.0796   38.2923 C   0  0  0  0  0  0  0  0  0  0  0  0
   29.4145  -10.7040   37.7372 C   0  0  0  0  0  0  0  0  0  0  0  0
   29.1145   -9.7840   38.7183 F   0  0  0  0  0  0  0  0  0  0  0  0
   30.8673  -10.6261   37.2435 C   0  0  0  0  0  0  0  0  0  0  0  0
 16 17  1  0  0  0
 17  1  1  0  0  0
  1  2  2  0  0  0
  2  3  1  0  0  0
  3  4  2  0  0  0
  4  5  1  0  0  0
  5  6  2  0  0  0
  6 18  1  0  0  0
 18 19  1  0  0  0
 19 20  1  0  0  0
 20 21  1  0  0  0
 21 22  1  0  0  0
 22 23  1  0  0  0
 23 24  1  0  0  0
 24 25  1  0  0  0
 24 26  1  0  0  0
  4  7  1  0  0  0
  7  8  2  0  0  0
  8  9  1  0  0  0
  8 10  1  0  0  0
 10 11  1  0  0  0
 11 12  1  0  0  0
 12 13  1  0  0  0
  6  1  1  0  0  0
 26 22  1  0  0  0
 13 10  1  0  0  0
 10  3  1  0  0  0
  9 14  1  0  0  0
  9 15  1  0  0  0
M  END
> <minimizedAffinity>
-7.98609

> <CNNscore>
0.7366033792

> <CNNaffinity>
6.0978741646

> <CNN_VS>
4.4917144775

> <CNNaffinity_variance>
0.1778222024

$$$$
[H]c1c2c(c([H])c(OC([H])([H])[H])c1OC([H])([H])C([H])([H])C([H])([H])N1C([H])([H])C([H])(F)C1([H])[H])C1(C(N([H])[H])=N2)C([H])([H])C([H])([H])C1([H])[H]


 26 29  0  0  0  0  0  0  0  0999 V2000
   35.8375  -18.0841   34.9890 C   0  0  0  0  0  0  0  0  0  0  0  0
   36.3916  -17.0127   35.6482 C   0  0  0  0  0  0  0  0  0  0  0  0
   35.5477  -15.9943   36.0855 C   0  0  0  0  0  0  0  0  0  0  0  0
   34.1917  -16.0443   35.8708 C   0  0  0  0  0  0  0  0  0  0  0  0
   33.6337  -17.1372   35.1991 C   0  0  0  0  0  0  0  0  0  0  0  0
   34.4566  -18.1353   34.7699 C   0  0  0  0  0  0  0  0  0  0  0  0
   33.6138  -14.8669   36.4310 N   0  0  0  0  0  0  0  0  0  0  0  0
   34.5088  -14.1172   36.9626 C   0  0  0  0  0  0  0  0  0  0  0  0
   34.2669  -12.8538   37.6167 N   0  0  0  0  0  0  0  0  0  0  0  0
   35.8090  -14.7450   36.7984 C   0  0  0  0  0  0  0  0  0  0  0  0
   36.9107  -13.8834   36.2415 C   0  0  0  0  0  0  0  0  0  0  0  0
   37.3834  -13.6442   37.6570 C   0  0  0  0  0  0  0  0  0  0  0  0
   36.6132  -14.8775   38.0745 C   0  0  0  0  0  0  0  0  0  0  0  0
   34.7777  -11.9939   37.3462 H   0  0  0  0  0  0  0  0  0  0  0  0
   33.5718  -12.7804   38.3741 H   0  0  0  0  0  0  0  0  0  0  0  0
   37.8904  -18.8113   33.9739 C   0  0  0  0  0  0  0  0  0  0  0  0
   36.6348  -19.1160   34.5380 O   0  0  0  0  0  0  0  0  0  0  0  0
   33.9639  -19.2477   34.0954 O   0  0  0  0  0  0  0  0  0  0  0  0
   32.6306  -19.3540   33.6614 C   0  0  0  0  0  0  0  0  0  0  0  0
   31.9579  -20.4267   34.5202 C   0  0  0  0  0  0  0  0  0  0  0  0
   30.7677  -19.8303   35.2455 C   0  0  0  0  0  0  0  0  0  0  0  0
   30.3182  -20.7582   36.2324 N   0  0  0  0  0  0  0  0  0  0  0  0
   28.8578  -20.7782   36.3021 C   0  0  0  0  0  0  0  0  0  0  0  0
   28.9492  -22.2972   36.2999 C   0  0  0  0  0  0  0  0  0  0  0  0
   28.0981  -22.8889   35.3920 F   0  0  0  0  0  0  0  0  0  0  0  0
   30.3866  -22.1360   35.7820 C   0  0  0  0  0  0  0  0  0  0  0  0
 16 17  1  0  0  0
 17  1  1  0  0  0
  1  2  2  0  0  0
  2  3  1  0  0  0
  3  4  2  0  0  0
  4  5  1  0  0  0
  5  6  2  0  0  0
  6 18  1  0  0  0
 18 19  1  0  0  0
 19 20  1  0  0  0
 20 21  1  0  0  0
 21 22  1  0  0  0
 22 23  1  0  0  0
 23 24  1  0  0  0
 24 25  1  0  0  0
 24 26  1  0  0  0
  4  7  1  0  0  0
  7  8  2  0  0  0
  8  9  1  0  0  0
  8 10  1  0  0  0
 10 11  1  0  0  0
 11 12  1  0  0  0
 12 13  1  0  0  0
  6  1  1  0  0  0
 26 22  1  0  0  0
 13 10  1  0  0  0
 10  3  1  0  0  0
  9 14  1  0  0  0
  9 15  1  0  0  0
M  END
> <minimizedAffinity>
-6.76063

> <CNNscore>
0.5405712724

> <CNNaffinity>
5.2254323959

> <CNN_VS>
2.8247187138

> <CNNaffinity_variance>
0.3045555651

$$$$
[H]c1c2c(c([H])c(OC([H])([H])[H])c1OC([H])([H])C([H])([H])C([H])([H])N1C([H])([H])C([H])(F)C1([H])[H])C1(C(N([H])[H])=N2)C([H])([H])C([H])([H])C1([H])[H]


 26 29  0  0  0  0  0  0  0  0999 V2000
   36.1140  -14.2232   36.8968 C   0  0  0  0  0  0  0  0  0  0  0  0
   35.6014  -12.9917   37.2286 C   0  0  0  0  0  0  0  0  0  0  0  0
   34.2518  -12.7472   36.9846 C   0  0  0  0  0  0  0  0  0  0  0  0
   33.4390  -13.7037   36.4260 C   0  0  0  0  0  0  0  0  0  0  0  0
   33.9665  -14.9550   36.0903 C   0  0  0  0  0  0  0  0  0  0  0  0
   35.2866  -15.1973   36.3276 C   0  0  0  0  0  0  0  0  0  0  0  0
   32.1291  -13.1523   36.3060 N   0  0  0  0  0  0  0  0  0  0  0  0
   32.0895  -11.9477   36.7454 C   0  0  0  0  0  0  0  0  0  0  0  0
   30.9216  -11.1005   36.7716 N   0  0  0  0  0  0  0  0  0  0  0  0
   33.4132  -11.5716   37.2121 C   0  0  0  0  0  0  0  0  0  0  0  0
   33.9603  -10.2617   36.7109 C   0  0  0  0  0  0  0  0  0  0  0  0
   33.4992   -9.6225   38.0007 C   0  0  0  0  0  0  0  0  0  0  0  0
   33.4516  -11.0040   38.6153 C   0  0  0  0  0  0  0  0  0  0  0  0
   30.9270  -10.1525   36.3536 H   0  0  0  0  0  0  0  0  0  0  0  0
   30.0478  -11.4260   37.2107 H   0  0  0  0  0  0  0  0  0  0  0  0
   38.3057  -13.4729   37.5346 C   0  0  0  0  0  0  0  0  0  0  0  0
   37.4450  -14.5098   37.1205 O   0  0  0  0  0  0  0  0  0  0  0  0
   35.8715  -16.4203   36.0156 O   0  0  0  0  0  0  0  0  0  0  0  0
   35.5537  -17.6160   36.6839 C   0  0  0  0  0  0  0  0  0  0  0  0
   35.5770  -18.7375   35.6435 C   0  0  0  0  0  0  0  0  0  0  0  0
   34.3613  -18.6275   34.7444 C   0  0  0  0  0  0  0  0  0  0  0  0
   33.4333  -19.6524   35.0981 N   0  0  0  0  0  0  0  0  0  0  0  0
   32.1968  -19.0766   35.6251 C   0  0  0  0  0  0  0  0  0  0  0  0
   31.4450  -20.0413   34.7196 C   0  0  0  0  0  0  0  0  0  0  0  0
   30.4523  -19.4307   33.9844 F   0  0  0  0  0  0  0  0  0  0  0  0
   32.7601  -20.2239   33.9465 C   0  0  0  0  0  0  0  0  0  0  0  0
 16 17  1  0  0  0
 17  1  1  0  0  0
  1  2  2  0  0  0
  2  3  1  0  0  0
  3  4  2  0  0  0
  4  5  1  0  0  0
  5  6  2  0  0  0
  6 18  1  0  0  0
 18 19  1  0  0  0
 19 20  1  0  0  0
 20 21  1  0  0  0
 21 22  1  0  0  0
 22 23  1  0  0  0
 23 24  1  0  0  0
 24 25  1  0  0  0
 24 26  1  0  0  0
  4  7  1  0  0  0
  7  8  2  0  0  0
  8  9  1  0  0  0
  8 10  1  0  0  0
 10 11  1  0  0  0
 11 12  1  0  0  0
 12 13  1  0  0  0
  6  1  1  0  0  0
 26 22  1  0  0  0
 13 10  1  0  0  0
 10  3  1  0  0  0
  9 14  1  0  0  0
  9 15  1  0  0  0
M  END
> <minimizedAffinity>
-5.46761

> <CNNscore>
0.5377988815

> <CNNaffinity>
5.8788571358

> <CNN_VS>
3.1616427898

> <CNNaffinity_variance>
0.0246042050

$$$$
[H]c1c2c(c([H])c(OC([H])([H])[H])c1OC([H])([H])C([H])([H])C([H])([H])N1C([H])([H])C([H])(F)C1([H])[H])C1(C(N([H])[H])=N2)C([H])([H])C([H])([H])C1([H])[H]


 26 29  0  0  0  0  0  0  0  0999 V2000
   35.9442  -14.4698   36.4656 C   0  0  0  0  0  0  0  0  0  0  0  0
   36.5638  -15.6120   36.0172 C   0  0  0  0  0  0  0  0  0  0  0  0
   35.7715  -16.6484   35.5286 C   0  0  0  0  0  0  0  0  0  0  0  0
   34.4019  -16.5472   35.4892 C   0  0  0  0  0  0  0  0  0  0  0  0
   33.7771  -15.3823   35.9472 C   0  0  0  0  0  0  0  0  0  0  0  0
   34.5495  -14.3665   36.4259 C   0  0  0  0  0  0  0  0  0  0  0  0
   33.8867  -17.7596   34.9428 N   0  0  0  0  0  0  0  0  0  0  0  0
   34.8316  -18.5772   34.6519 C   0  0  0  0  0  0  0  0  0  0  0  0
   34.6600  -19.8918   34.0820 N   0  0  0  0  0  0  0  0  0  0  0  0
   36.1056  -17.9661   34.9909 C   0  0  0  0  0  0  0  0  0  0  0  0
   37.0557  -18.7949   35.8135 C   0  0  0  0  0  0  0  0  0  0  0  0
   37.7628  -19.1799   34.5343 C   0  0  0  0  0  0  0  0  0  0  0  0
   37.1286  -17.9754   33.8745 C   0  0  0  0  0  0  0  0  0  0  0  0
   35.0800  -20.7330   34.5172 H   0  0  0  0  0  0  0  0  0  0  0  0
   34.1083  -20.0219   33.2213 H   0  0  0  0  0  0  0  0  0  0  0  0
   37.8140  -13.6953   37.7607 C   0  0  0  0  0  0  0  0  0  0  0  0
   36.6889  -13.4178   36.9579 O   0  0  0  0  0  0  0  0  0  0  0  0
   33.9892  -13.1835   36.8966 O   0  0  0  0  0  0  0  0  0  0  0  0
   33.2661  -13.1021   38.0999 C   0  0  0  0  0  0  0  0  0  0  0  0
   32.7228  -11.6758   38.2074 C   0  0  0  0  0  0  0  0  0  0  0  0
   33.6670  -10.7143   37.5130 C   0  0  0  0  0  0  0  0  0  0  0  0
   33.1754   -9.3850   37.6807 N   0  0  0  0  0  0  0  0  0  0  0  0
   33.7499   -8.4867   36.6802 C   0  0  0  0  0  0  0  0  0  0  0  0
   32.3432   -7.9510   36.4566 C   0  0  0  0  0  0  0  0  0  0  0  0
   31.9950   -7.8850   35.1249 F   0  0  0  0  0  0  0  0  0  0  0  0
   31.8296   -9.2135   37.1656 C   0  0  0  0  0  0  0  0  0  0  0  0
 16 17  1  0  0  0
 17  1  1  0  0  0
  1  2  2  0  0  0
  2  3  1  0  0  0
  3  4  2  0  0  0
  4  5  1  0  0  0
  5  6  2  0  0  0
  6 18  1  0  0  0
 18 19  1  0  0  0
 19 20  1  0  0  0
 20 21  1  0  0  0
 21 22  1  0  0  0
 22 23  1  0  0  0
 23 24  1  0  0  0
 24 25  1  0  0  0
 24 26  1  0  0  0
  4  7  1  0  0  0
  7  8  2  0  0  0
  8  9  1  0  0  0
  8 10  1  0  0  0
 10 11  1  0  0  0
 11 12  1  0  0  0
 12 13  1  0  0  0
  6  1  1  0  0  0
 26 22  1  0  0  0
 13 10  1  0  0  0
 10  3  1  0  0  0
  9 14  1  0  0  0
  9 15  1  0  0  0
M  END
> <minimizedAffinity>
-7.24250

> <CNNscore>
0.4885897040

> <CNNaffinity>
5.9136443138

> <CNN_VS>
2.8893456459

> <CNNaffinity_variance>
0.1001416668

$$$$
[H]c1c2c(c([H])c(OC([H])([H])[H])c1OC([H])([H])C([H])([H])C([H])([H])N1C([H])([H])C([H])(F)C1([H])[H])C1(C(N([H])[H])=N2)C([H])([H])C([H])([H])C1([H])[H]


 26 29  0  0  0  0  0  0  0  0999 V2000
   35.9558  -18.1339   34.7890 C   0  0  0  0  0  0  0  0  0  0  0  0
   36.4752  -17.0821   35.5055 C   0  0  0  0  0  0  0  0  0  0  0  0
   35.6006  -16.1088   35.9835 C   0  0  0  0  0  0  0  0  0  0  0  0
   34.2483  -16.1837   35.7525 C   0  0  0  0  0  0  0  0  0  0  0  0
   33.7257  -17.2564   35.0224 C   0  0  0  0  0  0  0  0  0  0  0  0
   34.5787  -18.2103   34.5534 C   0  0  0  0  0  0  0  0  0  0  0  0
   33.6343  -15.0507   36.3638 N   0  0  0  0  0  0  0  0  0  0  0  0
   34.5042  -14.3049   36.9406 C   0  0  0  0  0  0  0  0  0  0  0  0
   34.2229  -13.0820   37.6532 N   0  0  0  0  0  0  0  0  0  0  0  0
   35.8220  -14.8897   36.7593 C   0  0  0  0  0  0  0  0  0  0  0  0
   36.9054  -13.9732   36.2566 C   0  0  0  0  0  0  0  0  0  0  0  0
   37.3588  -13.7917   37.6870 C   0  0  0  0  0  0  0  0  0  0  0  0
   36.6179  -15.0637   38.0356 C   0  0  0  0  0  0  0  0  0  0  0  0
   34.7130  -12.1968   37.4304 H   0  0  0  0  0  0  0  0  0  0  0  0
   33.5193  -13.0642   38.4061 H   0  0  0  0  0  0  0  0  0  0  0  0
   38.1670  -18.8646   34.1975 C   0  0  0  0  0  0  0  0  0  0  0  0
   36.7843  -19.1211   34.2962 O   0  0  0  0  0  0  0  0  0  0  0  0
   34.1220  -19.3006   33.8202 O   0  0  0  0  0  0  0  0  0  0  0  0
   32.7825  -19.7286   33.8346 C   0  0  0  0  0  0  0  0  0  0  0  0
   32.6198  -20.6703   35.0294 C   0  0  0  0  0  0  0  0  0  0  0  0
   32.1546  -22.0310   34.5495 C   0  0  0  0  0  0  0  0  0  0  0  0
   31.9424  -22.8710   35.6836 N   0  0  0  0  0  0  0  0  0  0  0  0
   33.1617  -22.9860   36.4825 C   0  0  0  0  0  0  0  0  0  0  0  0
   32.2967  -22.7372   37.7095 C   0  0  0  0  0  0  0  0  0  0  0  0
   32.8141  -21.7755   38.5499 F   0  0  0  0  0  0  0  0  0  0  0  0
   31.2209  -22.2035   36.7513 C   0  0  0  0  0  0  0  0  0  0  0  0
 16 17  1  0  0  0
 17  1  1  0  0  0
  1  2  2  0  0  0
  2  3  1  0  0  0
  3  4  2  0  0  0
  4  5  1  0  0  0
  5  6  2  0  0  0
  6 18  1  0  0  0
 18 19  1  0  0  0
 19 20  1  0  0  0
 20 21  1  0  0  0
 21 22  1  0  0  0
 22 23  1  0  0  0
 23 24  1  0  0  0
 24 25  1  0  0  0
 24 26  1  0  0  0
  4  7  1  0  0  0
  7  8  2  0  0  0
  8  9  1  0  0  0
  8 10  1  0  0  0
 10 11  1  0  0  0
 11 12  1  0  0  0
 12 13  1  0  0  0
  6  1  1  0  0  0
 26 22  1  0  0  0
 13 10  1  0  0  0
 10  3  1  0  0  0
  9 14  1  0  0  0
  9 15  1  0  0  0
M  END
> <minimizedAffinity>
-6.35141

> <CNNscore>
0.4848188162

> <CNNaffinity>
5.0788226128

> <CNN_VS>
2.4623088837

> <CNNaffinity_variance>
0.2312539816

$$$$
[H]c1c2c(c([H])c(OC([H])([H])[H])c1OC([H])([H])C([H])([H])C([H])([H])N1C([H])([H])C([H])(F)C1([H])[H])C1(C(N([H])[H])=N2)C([H])([H])C([H])([H])C1([H])[H]


 26 29  0  0  0  0  0  0  0  0999 V2000
   34.7600  -17.8188   35.8080 C   0  0  0  0  0  0  0  0  0  0  0  0
   34.6008  -16.4679   36.0062 C   0  0  0  0  0  0  0  0  0  0  0  0
   35.6508  -15.7529   36.5779 C   0  0  0  0  0  0  0  0  0  0  0  0
   36.8242  -16.3685   36.9407 C   0  0  0  0  0  0  0  0  0  0  0  0
   36.9802  -17.7437   36.7368 C   0  0  0  0  0  0  0  0  0  0  0  0
   35.9547  -18.4461   36.1777 C   0  0  0  0  0  0  0  0  0  0  0  0
   37.6894  -15.3770   37.4906 N   0  0  0  0  0  0  0  0  0  0  0  0
   37.1334  -14.2209   37.4873 C   0  0  0  0  0  0  0  0  0  0  0  0
   37.7306  -12.9995   37.9710 N   0  0  0  0  0  0  0  0  0  0  0  0
   35.8015  -14.3393   36.9183 C   0  0  0  0  0  0  0  0  0  0  0  0
   34.6737  -13.7238   37.7029 C   0  0  0  0  0  0  0  0  0  0  0  0
   34.7721  -12.5070   36.8117 C   0  0  0  0  0  0  0  0  0  0  0  0
   35.5022  -13.3630   35.8003 C   0  0  0  0  0  0  0  0  0  0  0  0
   37.2532  -12.3983   38.6669 H   0  0  0  0  0  0  0  0  0  0  0  0
   38.6555  -12.6979   37.6309 H   0  0  0  0  0  0  0  0  0  0  0  0
   33.0237  -18.0297   34.1605 C   0  0  0  0  0  0  0  0  0  0  0  0
   33.7466  -18.5670   35.2450 O   0  0  0  0  0  0  0  0  0  0  0  0
   36.0471  -19.8152   35.9499 O   0  0  0  0  0  0  0  0  0  0  0  0
   37.0846  -20.6112   36.4670 C   0  0  0  0  0  0  0  0  0  0  0  0
   38.1669  -20.7024   35.3893 C   0  0  0  0  0  0  0  0  0  0  0  0
   39.5132  -20.3379   35.9832 C   0  0  0  0  0  0  0  0  0  0  0  0
   39.9587  -19.1152   35.3971 N   0  0  0  0  0  0  0  0  0  0  0  0
   41.3587  -19.2136   34.9868 C   0  0  0  0  0  0  0  0  0  0  0  0
   40.9434  -18.5769   33.6685 C   0  0  0  0  0  0  0  0  0  0  0  0
   41.4244  -19.2510   32.5672 F   0  0  0  0  0  0  0  0  0  0  0  0
   39.4966  -18.9443   34.0321 C   0  0  0  0  0  0  0  0  0  0  0  0
 16 17  1  0  0  0
 17  1  1  0  0  0
  1  2  2  0  0  0
  2  3  1  0  0  0
  3  4  2  0  0  0
  4  5  1  0  0  0
  5  6  2  0  0  0
  6 18  1  0  0  0
 18 19  1  0  0  0
 19 20  1  0  0  0
 20 21  1  0  0  0
 21 22  1  0  0  0
 22 23  1  0  0  0
 23 24  1  0  0  0
 24 25  1  0  0  0
 24 26  1  0  0  0
  4  7  1  0  0  0
  7  8  2  0  0  0
  8  9  1  0  0  0
  8 10  1  0  0  0
 10 11  1  0  0  0
 11 12  1  0  0  0
 12 13  1  0  0  0
  6  1  1  0  0  0
 26 22  1  0  0  0
 13 10  1  0  0  0
 10  3  1  0  0  0
  9 14  1  0  0  0
  9 15  1  0  0  0
M  END
> <minimizedAffinity>
-5.82649

> <CNNscore>
0.4275998771

> <CNNaffinity>
5.0256524086

> <CNN_VS>
2.1489684582

> <CNNaffinity_variance>
0.5914586782

$$$$
[H]c1c2c(c([H])c(OC([H])([H])[H])c1OC([H])([H])C([H])([H])C([H])([H])N1C([H])([H])C([H])(F)C1([H])[H])C1(C(N([H])[H])=N2)C([H])([H])C([H])([H])C1([H])[H]


 26 29  0  0  0  0  0  0  0  0999 V2000
   37.4867  -20.1902   36.1425 C   0  0  0  0  0  0  0  0  0  0  0  0
   36.2142  -19.9267   35.6943 C   0  0  0  0  0  0  0  0  0  0  0  0
   35.7189  -18.6315   35.8275 C   0  0  0  0  0  0  0  0  0  0  0  0
   36.4717  -17.6300   36.3914 C   0  0  0  0  0  0  0  0  0  0  0  0
   37.7659  -17.9044   36.8458 C   0  0  0  0  0  0  0  0  0  0  0  0
   38.2534  -19.1707   36.7170 C   0  0  0  0  0  0  0  0  0  0  0  0
   35.6918  -16.4359   36.3833 N   0  0  0  0  0  0  0  0  0  0  0  0
   34.5370  -16.6380   35.8626 C   0  0  0  0  0  0  0  0  0  0  0  0
   33.5031  -15.6446   35.6990 N   0  0  0  0  0  0  0  0  0  0  0  0
   34.4361  -18.0318   35.4644 C   0  0  0  0  0  0  0  0  0  0  0  0
   33.2071  -18.7763   35.9133 C   0  0  0  0  0  0  0  0  0  0  0  0
   32.5999  -18.5107   34.5549 C   0  0  0  0  0  0  0  0  0  0  0  0
   33.9955  -18.2503   34.0323 C   0  0  0  0  0  0  0  0  0  0  0  0
   32.5409  -15.7969   36.0520 H   0  0  0  0  0  0  0  0  0  0  0  0
   33.7039  -14.7526   35.2234 H   0  0  0  0  0  0  0  0  0  0  0  0
   37.5581  -22.4698   36.8986 C   0  0  0  0  0  0  0  0  0  0  0  0
   38.0185  -21.4585   36.0310 O   0  0  0  0  0  0  0  0  0  0  0  0
   39.5316  -19.5078   37.1500 O   0  0  0  0  0  0  0  0  0  0  0  0
   40.6433  -18.6609   36.9940 C   0  0  0  0  0  0  0  0  0  0  0  0
   41.6839  -19.4244   36.1723 C   0  0  0  0  0  0  0  0  0  0  0  0
   42.3256  -18.4915   35.1643 C   0  0  0  0  0  0  0  0  0  0  0  0
   42.0321  -18.9626   33.8495 N   0  0  0  0  0  0  0  0  0  0  0  0
   41.5579  -20.3454   33.8851 C   0  0  0  0  0  0  0  0  0  0  0  0
   40.4463  -19.9139   32.9397 C   0  0  0  0  0  0  0  0  0  0  0  0
   39.1986  -20.3375   33.3430 F   0  0  0  0  0  0  0  0  0  0  0  0
   40.7657  -18.4664   33.3436 C   0  0  0  0  0  0  0  0  0  0  0  0
 16 17  1  0  0  0
 17  1  1  0  0  0
  1  2  2  0  0  0
  2  3  1  0  0  0
  3  4  2  0  0  0
  4  5  1  0  0  0
  5  6  2  0  0  0
  6 18  1  0  0  0
 18 19  1  0  0  0
 19 20  1  0  0  0
 20 21  1  0  0  0
 21 22  1  0  0  0
 22 23  1  0  0  0
 23 24  1  0  0  0
 24 25  1  0  0  0
 24 26  1  0  0  0
  4  7  1  0  0  0
  7  8  2  0  0  0
  8  9  1  0  0  0
  8 10  1  0  0  0
 10 11  1  0  0  0
 11 12  1  0  0  0
 12 13  1  0  0  0
  6  1  1  0  0  0
 26 22  1  0  0  0
 13 10  1  0  0  0
 10  3  1  0  0  0
  9 14  1  0  0  0
  9 15  1  0  0  0
M  END
> <minimizedAffinity>
-4.82100

> <CNNscore>
0.4029131532

> <CNNaffinity>
4.8969674110

> <CNN_VS>
1.9730526209

> <CNNaffinity_variance>
0.1435946077

$$$$
[H]c1c2c(c([H])c(OC([H])([H])[H])c1OC([H])([H])C([H])([H])C([H])([H])N1C([H])([H])C([H])(F)C1([H])[H])C1(C(N([H])[H])=N2)C([H])([H])C([H])([H])C1([H])[H]


 26 29  0  0  0  0  0  0  0  0999 V2000
   34.2413  -17.6598   35.9195 C   0  0  0  0  0  0  0  0  0  0  0  0
   34.2445  -16.2928   36.0641 C   0  0  0  0  0  0  0  0  0  0  0  0
   35.3894  -15.6819   36.5706 C   0  0  0  0  0  0  0  0  0  0  0  0
   36.4975  -16.4141   36.9221 C   0  0  0  0  0  0  0  0  0  0  0  0
   36.4882  -17.8049   36.7729 C   0  0  0  0  0  0  0  0  0  0  0  0
   35.3695  -18.4057   36.2777 C   0  0  0  0  0  0  0  0  0  0  0  0
   37.4896  -15.5081   37.4007 N   0  0  0  0  0  0  0  0  0  0  0  0
   37.0692  -14.2966   37.3652 C   0  0  0  0  0  0  0  0  0  0  0  0
   37.8190  -13.1342   37.7764 N   0  0  0  0  0  0  0  0  0  0  0  0
   35.7126  -14.2828   36.8447 C   0  0  0  0  0  0  0  0  0  0  0  0
   34.6917  -13.5110   37.6375 C   0  0  0  0  0  0  0  0  0  0  0  0
   34.8955  -12.3496   36.6918 C   0  0  0  0  0  0  0  0  0  0  0  0
   35.4857  -13.3232   35.6956 C   0  0  0  0  0  0  0  0  0  0  0  0
   37.4391  -12.4552   38.4606 H   0  0  0  0  0  0  0  0  0  0  0  0
   38.7592  -12.9550   37.3943 H   0  0  0  0  0  0  0  0  0  0  0  0
   32.9388  -18.3611   34.0261 C   0  0  0  0  0  0  0  0  0  0  0  0
   33.1294  -18.3077   35.4219 O   0  0  0  0  0  0  0  0  0  0  0  0
   35.2969  -19.7843   36.1064 O   0  0  0  0  0  0  0  0  0  0  0  0
   36.0340  -20.6945   36.8846 C   0  0  0  0  0  0  0  0  0  0  0  0
   35.1890  -21.0275   38.1158 C   0  0  0  0  0  0  0  0  0  0  0  0
   36.0366  -21.7629   39.1352 C   0  0  0  0  0  0  0  0  0  0  0  0
   35.3197  -21.8294   40.3675 N   0  0  0  0  0  0  0  0  0  0  0  0
   35.9667  -21.0107   41.3917 C   0  0  0  0  0  0  0  0  0  0  0  0
   34.5863  -20.4648   41.7268 C   0  0  0  0  0  0  0  0  0  0  0  0
   34.5543  -19.0898   41.8112 F   0  0  0  0  0  0  0  0  0  0  0  0
   34.1224  -21.0093   40.3670 C   0  0  0  0  0  0  0  0  0  0  0  0
 16 17  1  0  0  0
 17  1  1  0  0  0
  1  2  2  0  0  0
  2  3  1  0  0  0
  3  4  2  0  0  0
  4  5  1  0  0  0
  5  6  2  0  0  0
  6 18  1  0  0  0
 18 19  1  0  0  0
 19 20  1  0  0  0
 20 21  1  0  0  0
 21 22  1  0  0  0
 22 23  1  0  0  0
 23 24  1  0  0  0
 24 25  1  0  0  0
 24 26  1  0  0  0
  4  7  1  0  0  0
  7  8  2  0  0  0
  8  9  1  0  0  0
  8 10  1  0  0  0
 10 11  1  0  0  0
 11 12  1  0  0  0
 12 13  1  0  0  0
  6  1  1  0  0  0
 26 22  1  0  0  0
 13 10  1  0  0  0
 10  3  1  0  0  0
  9 14  1  0  0  0
  9 15  1  0  0  0
M  END
> <minimizedAffinity>
-5.48341

> <CNNscore>
0.3667763472

> <CNNaffinity>
4.7592000961

> <CNN_VS>
1.7455620766

> <CNNaffinity_variance>
0.6089379787

$$$$
[H]c1c2c(c([H])c(OC([H])([H])[H])c1OC([H])([H])C([H])([H])C([H])([H])N1C([H])([H])C([H])(F)C1([H])[H])C1(C(N([H])[H])=N2)C([H])([H])C([H])([H])C1([H])[H]


 26 29  0  0  0  0  0  0  0  0999 V2000
   34.6179  -17.9609   35.7533 C   0  0  0  0  0  0  0  0  0  0  0  0
   34.5201  -16.5994   35.9151 C   0  0  0  0  0  0  0  0  0  0  0  0
   35.5580  -15.9318   36.5614 C   0  0  0  0  0  0  0  0  0  0  0  0
   36.6601  -16.6038   37.0320 C   0  0  0  0  0  0  0  0  0  0  0  0
   36.7538  -17.9894   36.8645 C   0  0  0  0  0  0  0  0  0  0  0  0
   35.7400  -18.6455   36.2326 C   0  0  0  0  0  0  0  0  0  0  0  0
   37.5317  -15.6503   37.6365 N   0  0  0  0  0  0  0  0  0  0  0  0
   37.0447  -14.4655   37.5673 C   0  0  0  0  0  0  0  0  0  0  0  0
   37.6682  -13.2691   38.0795 N   0  0  0  0  0  0  0  0  0  0  0  0
   35.7602  -14.5218   36.8902 C   0  0  0  0  0  0  0  0  0  0  0  0
   34.6080  -13.8283   37.5667 C   0  0  0  0  0  0  0  0  0  0  0  0
   34.8495  -12.6380   36.6671 C   0  0  0  0  0  0  0  0  0  0  0  0
   35.6111  -13.5543   35.7350 C   0  0  0  0  0  0  0  0  0  0  0  0
   37.1697  -12.6279   38.7228 H   0  0  0  0  0  0  0  0  0  0  0  0
   38.6340  -13.0266   37.8137 H   0  0  0  0  0  0  0  0  0  0  0  0
   32.2746  -18.4205   35.4863 C   0  0  0  0  0  0  0  0  0  0  0  0
   33.6139  -18.6635   35.1192 O   0  0  0  0  0  0  0  0  0  0  0  0
   35.7727  -20.0222   36.0359 O   0  0  0  0  0  0  0  0  0  0  0  0
   36.0730  -20.9372   37.0606 C   0  0  0  0  0  0  0  0  0  0  0  0
   37.4524  -21.5244   36.7550 C   0  0  0  0  0  0  0  0  0  0  0  0
   37.7262  -22.6959   37.6775 C   0  0  0  0  0  0  0  0  0  0  0  0
   38.6091  -23.6034   37.0188 N   0  0  0  0  0  0  0  0  0  0  0  0
   37.8965  -24.3813   36.0062 C   0  0  0  0  0  0  0  0  0  0  0  0
   39.0515  -24.0785   35.0628 C   0  0  0  0  0  0  0  0  0  0  0  0
   38.6374  -23.6251   33.8292 F   0  0  0  0  0  0  0  0  0  0  0  0
   39.4497  -22.9535   36.0304 C   0  0  0  0  0  0  0  0  0  0  0  0
 16 17  1  0  0  0
 17  1  1  0  0  0
  1  2  2  0  0  0
  2  3  1  0  0  0
  3  4  2  0  0  0
  4  5  1  0  0  0
  5  6  2  0  0  0
  6 18  1  0  0  0
 18 19  1  0  0  0
 19 20  1  0  0  0
 20 21  1  0  0  0
 21 22  1  0  0  0
 22 23  1  0  0  0
 23 24  1  0  0  0
 24 25  1  0  0  0
 24 26  1  0  0  0
  4  7  1  0  0  0
  7  8  2  0  0  0
  8  9  1  0  0  0
  8 10  1  0  0  0
 10 11  1  0  0  0
 11 12  1  0  0  0
 12 13  1  0  0  0
  6  1  1  0  0  0
 26 22  1  0  0  0
 13 10  1  0  0  0
 10  3  1  0  0  0
  9 14  1  0  0  0
  9 15  1  0  0  0
M  END
> <minimizedAffinity>
-5.11599

> <CNNscore>
0.3283191919

> <CNNaffinity>
4.5978574753

> <CNN_VS>
1.5095648766

> <CNNaffinity_variance>
0.3552839756

$$$$
[H]c1c([H])c([H])c(N2C([H])([H])C([H])([H])N(c3nc(N([H])C4([H])C([H])([H])C([H])([H])N(C([H])(C([H])([H])[H])C([H])([H])[H])C([H])([H])C4([H])[H])c4c([H])c(OC([H])([H])[H])c(OC([H])([H])C([H])([H])C([H])([H])N5C([H])([H])C([H])([H])C([H])([H])C5([H])[H])c([H])c4n3)C([H])([H])C([H])([H])C2([H])[H])c([H])c1[H]


 45 50  0  0  0  0  0  0  0  0999 V2000
   35.9525  -14.3289   36.9795 C   0  0  0  0  0  0  0  0  0  0  0  0
   36.2677  -15.6885   36.9334 C   0  0  0  0  0  0  0  0  0  0  0  0
   35.3950  -16.6341   36.4400 C   0  0  0  0  0  0  0  0  0  0  0  0
   35.7012  -17.9767   36.3927 C   0  0  0  0  0  0  0  0  0  0  0  0
   34.7523  -18.7883   35.8848 N   0  0  0  0  0  0  0  0  0  0  0  0
   33.5587  -18.3702   35.4353 C   0  0  0  0  0  0  0  0  0  0  0  0
   33.2882  -17.0566   35.4938 N   0  0  0  0  0  0  0  0  0  0  0  0
   34.1667  -16.1472   35.9849 C   0  0  0  0  0  0  0  0  0  0  0  0
   33.8112  -14.8330   36.0080 C   0  0  0  0  0  0  0  0  0  0  0  0
   34.7255  -13.9170   36.5152 C   0  0  0  0  0  0  0  0  0  0  0  0
   32.5794  -19.2540   34.9067 N   0  0  0  0  0  0  0  0  0  0  0  0
   33.0825  -20.4422   34.2577 C   0  0  0  0  0  0  0  0  0  0  0  0
   32.7743  -21.6624   35.1323 C   0  0  0  0  0  0  0  0  0  0  0  0
   31.4017  -22.1751   34.7229 C   0  0  0  0  0  0  0  0  0  0  0  0
   30.4598  -21.1726   35.1884 N   0  0  0  0  0  0  0  0  0  0  0  0
   30.2435  -19.9086   34.5687 C   0  0  0  0  0  0  0  0  0  0  0  0
   31.2071  -18.8504   35.0801 C   0  0  0  0  0  0  0  0  0  0  0  0
   29.7407  -21.4932   36.3588 C   0  0  0  0  0  0  0  0  0  0  0  0
   28.5614  -20.8268   36.7012 C   0  0  0  0  0  0  0  0  0  0  0  0
   27.8451  -21.1006   37.8353 C   0  0  0  0  0  0  0  0  0  0  0  0
   28.2607  -22.0687   38.7147 C   0  0  0  0  0  0  0  0  0  0  0  0
   29.4099  -22.7466   38.4194 C   0  0  0  0  0  0  0  0  0  0  0  0
   30.1390  -22.4660   37.2624 C   0  0  0  0  0  0  0  0  0  0  0  0
   38.2227  -13.5440   37.5137 C   0  0  0  0  0  0  0  0  0  0  0  0
   36.8395  -13.3886   37.4781 O   0  0  0  0  0  0  0  0  0  0  0  0
   36.9533  -18.4667   36.8505 N   0  0  0  0  0  0  0  0  0  0  0  0
   37.1074  -18.6760   37.8575 H   0  0  0  0  0  0  0  0  0  0  0  0
   38.0754  -18.7053   35.9780 C   0  0  0  0  0  0  0  0  0  0  0  0
   39.3886  -18.8760   36.6661 C   0  0  0  0  0  0  0  0  0  0  0  0
   40.4028  -19.3291   35.6178 C   0  0  0  0  0  0  0  0  0  0  0  0
   39.9520  -18.9103   34.3233 N   0  0  0  0  0  0  0  0  0  0  0  0
   38.8458  -19.7538   33.9269 C   0  0  0  0  0  0  0  0  0  0  0  0
   37.8493  -19.8954   35.0696 C   0  0  0  0  0  0  0  0  0  0  0  0
   41.0581  -19.0515   33.4016 C   0  0  0  0  0  0  0  0  0  0  0  0
   42.3690  -18.6249   33.9779 C   0  0  0  0  0  0  0  0  0  0  0  0
   41.1573  -20.4922   32.9680 C   0  0  0  0  0  0  0  0  0  0  0  0
   34.4331  -12.5380   36.5738 O   0  0  0  0  0  0  0  0  0  0  0  0
   33.8731  -12.0661   37.7740 C   0  0  0  0  0  0  0  0  0  0  0  0
   32.6258  -11.2931   37.4994 C   0  0  0  0  0  0  0  0  0  0  0  0
   31.4775  -12.2348   37.2672 C   0  0  0  0  0  0  0  0  0  0  0  0
   30.2418  -11.4681   37.2590 N   0  0  0  0  0  0  0  0  0  0  0  0
   30.5237  -10.1135   37.7258 C   0  0  0  0  0  0  0  0  0  0  0  0
   29.2702   -9.6636   38.4354 C   0  0  0  0  0  0  0  0  0  0  0  0
   28.4497  -10.9104   38.6192 C   0  0  0  0  0  0  0  0  0  0  0  0
   29.4432  -12.0156   38.3605 C   0  0  0  0  0  0  0  0  0  0  0  0
 24 25  1  0  0  0
 25  1  1  0  0  0
  1  2  2  0  0  0
  2  3  1  0  0  0
  3  4  2  0  0  0
  4 26  1  0  0  0
 26 28  1  0  0  0
 28 29  1  0  0  0
 29 30  1  0  0  0
 30 31  1  0  0  0
 31 32  1  0  0  0
 32 33  1  0  0  0
 31 34  1  0  0  0
 34 35  1  0  0  0
 34 36  1  0  0  0
  4  5  1  0  0  0
  5  6  2  0  0  0
  6  7  1  0  0  0
  7  8  2  0  0  0
  8  9  1  0  0  0
  9 10  2  0  0  0
 10 37  1  0  0  0
 37 38  1  0  0  0
 38 39  1  0  0  0
 39 40  1  0  0  0
 40 41  1  0  0  0
 41 42  1  0  0  0
 42 43  1  0  0  0
 43 44  1  0  0  0
 44 45  1  0  0  0
  6 11  1  0  0  0
 11 12  1  0  0  0
 12 13  1  0  0  0
 13 14  1  0  0  0
 14 15  1  0  0  0
 15 16  1  0  0  0
 16 17  1  0  0  0
 15 18  1  0  0  0
 18 19  2  0  0  0
 19 20  1  0  0  0
 20 21  2  0  0  0
 21 22  1  0  0  0
 22 23  2  0  0  0
 10  1  1  0  0  0
 45 41  1  0  0  0
 17 11  1  0  0  0
 23 18  1  0  0  0
  8  3  1  0  0  0
 33 28  1  0  0  0
 26 27  1  0  0  0
M  END
> <minimizedAffinity>
-9.12942

> <CNNscore>
0.7180326581

> <CNNaffinity>
7.7162475586

> <CNN_VS>
5.5405178070

> <CNNaffinity_variance>
0.1067460030

$$$$
[H]c1c([H])c([H])c(N2C([H])([H])C([H])([H])N(c3nc(N([H])C4([H])C([H])([H])C([H])([H])N(C([H])(C([H])([H])[H])C([H])([H])[H])C([H])([H])C4([H])[H])c4c([H])c(OC([H])([H])[H])c(OC([H])([H])C([H])([H])C([H])([H])N5C([H])([H])C([H])([H])C([H])([H])C5([H])[H])c([H])c4n3)C([H])([H])C([H])([H])C2([H])[H])c([H])c1[H]


 45 50  0  0  0  0  0  0  0  0999 V2000
   35.9696  -14.2139   36.8883 C   0  0  0  0  0  0  0  0  0  0  0  0
   36.3555  -15.5210   36.5846 C   0  0  0  0  0  0  0  0  0  0  0  0
   35.4715  -16.4592   36.0972 C   0  0  0  0  0  0  0  0  0  0  0  0
   35.8473  -17.7503   35.7963 C   0  0  0  0  0  0  0  0  0  0  0  0
   34.8777  -18.5608   35.3274 N   0  0  0  0  0  0  0  0  0  0  0  0
   33.6016  -18.1879   35.1431 C   0  0  0  0  0  0  0  0  0  0  0  0
   33.2645  -16.9240   35.4449 N   0  0  0  0  0  0  0  0  0  0  0  0
   34.1561  -16.0208   35.9236 C   0  0  0  0  0  0  0  0  0  0  0  0
   33.7294  -14.7585   36.2044 C   0  0  0  0  0  0  0  0  0  0  0  0
   34.6585  -13.8479   36.6941 C   0  0  0  0  0  0  0  0  0  0  0  0
   32.6029  -19.0694   34.6479 N   0  0  0  0  0  0  0  0  0  0  0  0
   33.0796  -20.2205   33.9171 C   0  0  0  0  0  0  0  0  0  0  0  0
   32.8546  -21.4805   34.7600 C   0  0  0  0  0  0  0  0  0  0  0  0
   31.4657  -22.0040   34.4261 C   0  0  0  0  0  0  0  0  0  0  0  0
   30.5417  -21.0399   34.9969 N   0  0  0  0  0  0  0  0  0  0  0  0
   30.2606  -19.7568   34.4463 C   0  0  0  0  0  0  0  0  0  0  0  0
   31.2394  -18.7007   34.9327 C   0  0  0  0  0  0  0  0  0  0  0  0
   29.9121  -21.4213   36.2001 C   0  0  0  0  0  0  0  0  0  0  0  0
   28.6710  -20.9012   36.5759 C   0  0  0  0  0  0  0  0  0  0  0  0
   28.0370  -21.2367   37.7421 C   0  0  0  0  0  0  0  0  0  0  0  0
   28.6038  -22.1238   38.6223 C   0  0  0  0  0  0  0  0  0  0  0  0
   29.8183  -22.6581   38.2949 C   0  0  0  0  0  0  0  0  0  0  0  0
   30.4634  -22.3148   37.1054 C   0  0  0  0  0  0  0  0  0  0  0  0
   38.2298  -13.5107   37.5608 C   0  0  0  0  0  0  0  0  0  0  0  0
   36.8688  -13.2805   37.3777 O   0  0  0  0  0  0  0  0  0  0  0  0
   37.1868  -18.1902   35.9682 N   0  0  0  0  0  0  0  0  0  0  0  0
   37.9612  -17.7677   35.4172 H   0  0  0  0  0  0  0  0  0  0  0  0
   37.5653  -19.2273   36.8947 C   0  0  0  0  0  0  0  0  0  0  0  0
   36.5354  -19.5693   37.9191 C   0  0  0  0  0  0  0  0  0  0  0  0
   37.0180  -20.8146   38.6602 C   0  0  0  0  0  0  0  0  0  0  0  0
   38.4446  -20.8976   38.5496 N   0  0  0  0  0  0  0  0  0  0  0  0
   38.7780  -21.3091   37.2036 C   0  0  0  0  0  0  0  0  0  0  0  0
   37.9828  -20.4997   36.1881 C   0  0  0  0  0  0  0  0  0  0  0  0
   38.9078  -21.8736   39.5118 C   0  0  0  0  0  0  0  0  0  0  0  0
   37.8374  -22.3442   40.4420 C   0  0  0  0  0  0  0  0  0  0  0  0
   39.4758  -23.0604   38.7754 C   0  0  0  0  0  0  0  0  0  0  0  0
   34.2959  -12.5214   37.0095 O   0  0  0  0  0  0  0  0  0  0  0  0
   33.4561  -12.3488   38.1237 C   0  0  0  0  0  0  0  0  0  0  0  0
   32.3379  -11.4159   37.7951 C   0  0  0  0  0  0  0  0  0  0  0  0
   31.2836  -12.1358   37.0018 C   0  0  0  0  0  0  0  0  0  0  0  0
   29.9959  -11.5154   37.2692 N   0  0  0  0  0  0  0  0  0  0  0  0
   30.2161  -10.1374   37.6991 C   0  0  0  0  0  0  0  0  0  0  0  0
   29.0969   -9.8335   38.6647 C   0  0  0  0  0  0  0  0  0  0  0  0
   28.4778  -11.1659   38.9858 C   0  0  0  0  0  0  0  0  0  0  0  0
   29.5122  -12.1503   38.4997 C   0  0  0  0  0  0  0  0  0  0  0  0
 24 25  1  0  0  0
 25  1  1  0  0  0
  1  2  2  0  0  0
  2  3  1  0  0  0
  3  4  2  0  0  0
  4 26  1  0  0  0
 26 28  1  0  0  0
 28 29  1  0  0  0
 29 30  1  0  0  0
 30 31  1  0  0  0
 31 32  1  0  0  0
 32 33  1  0  0  0
 31 34  1  0  0  0
 34 35  1  0  0  0
 34 36  1  0  0  0
  4  5  1  0  0  0
  5  6  2  0  0  0
  6  7  1  0  0  0
  7  8  2  0  0  0
  8  9  1  0  0  0
  9 10  2  0  0  0
 10 37  1  0  0  0
 37 38  1  0  0  0
 38 39  1  0  0  0
 39 40  1  0  0  0
 40 41  1  0  0  0
 41 42  1  0  0  0
 42 43  1  0  0  0
 43 44  1  0  0  0
 44 45  1  0  0  0
  6 11  1  0  0  0
 11 12  1  0  0  0
 12 13  1  0  0  0
 13 14  1  0  0  0
 14 15  1  0  0  0
 15 16  1  0  0  0
 16 17  1  0  0  0
 15 18  1  0  0  0
 18 19  2  0  0  0
 19 20  1  0  0  0
 20 21  2  0  0  0
 21 22  1  0  0  0
 22 23  2  0  0  0
 10  1  1  0  0  0
 45 41  1  0  0  0
 17 11  1  0  0  0
 23 18  1  0  0  0
  8  3  1  0  0  0
 33 28  1  0  0  0
 26 27  1  0  0  0
M  END
> <minimizedAffinity>
-8.12090

> <CNNscore>
0.5516643524

> <CNNaffinity>
7.4699959755

> <CNN_VS>
4.1209306717

> <CNNaffinity_variance>
0.0834973231

$$$$
[H]c1c([H])c([H])c(N2C([H])([H])C([H])([H])N(c3nc(N([H])C4([H])C([H])([H])C([H])([H])N(C([H])(C([H])([H])[H])C([H])([H])[H])C([H])([H])C4([H])[H])c4c([H])c(OC([H])([H])[H])c(OC([H])([H])C([H])([H])C([H])([H])N5C([H])([H])C([H])([H])C([H])([H])C5([H])[H])c([H])c4n3)C([H])([H])C([H])([H])C2([H])[H])c([H])c1[H]


 45 50  0  0  0  0  0  0  0  0999 V2000
   35.9188  -14.5658   36.5431 C   0  0  0  0  0  0  0  0  0  0  0  0
   36.2538  -15.9108   36.3739 C   0  0  0  0  0  0  0  0  0  0  0  0
   35.3339  -16.8588   35.9808 C   0  0  0  0  0  0  0  0  0  0  0  0
   35.6594  -18.1870   35.8128 C   0  0  0  0  0  0  0  0  0  0  0  0
   34.6589  -19.0029   35.4251 N   0  0  0  0  0  0  0  0  0  0  0  0
   33.3979  -18.6018   35.2003 C   0  0  0  0  0  0  0  0  0  0  0  0
   33.1100  -17.3018   35.3721 N   0  0  0  0  0  0  0  0  0  0  0  0
   34.0362  -16.3898   35.7599 C   0  0  0  0  0  0  0  0  0  0  0  0
   33.6586  -15.0902   35.9107 C   0  0  0  0  0  0  0  0  0  0  0  0
   34.6226  -14.1712   36.3090 C   0  0  0  0  0  0  0  0  0  0  0  0
   32.3656  -19.4897   34.7935 N   0  0  0  0  0  0  0  0  0  0  0  0
   32.7945  -20.6967   34.1262 C   0  0  0  0  0  0  0  0  0  0  0  0
   32.5682  -21.8937   35.0562 C   0  0  0  0  0  0  0  0  0  0  0  0
   31.1587  -22.4047   34.7981 C   0  0  0  0  0  0  0  0  0  0  0  0
   30.2738  -21.3840   35.3312 N   0  0  0  0  0  0  0  0  0  0  0  0
   30.0039  -20.1331   34.7060 C   0  0  0  0  0  0  0  0  0  0  0  0
   31.0198  -19.0711   35.0932 C   0  0  0  0  0  0  0  0  0  0  0  0
   29.6734  -21.6715   36.5748 C   0  0  0  0  0  0  0  0  0  0  0  0
   30.2420  -22.5790   37.4720 C   0  0  0  0  0  0  0  0  0  0  0  0
   29.6808  -22.8936   38.6805 C   0  0  0  0  0  0  0  0  0  0  0  0
   28.5013  -22.3177   39.0809 C   0  0  0  0  0  0  0  0  0  0  0  0
   27.9094  -21.4231   38.2341 C   0  0  0  0  0  0  0  0  0  0  0  0
   28.4832  -21.1036   37.0022 C   0  0  0  0  0  0  0  0  0  0  0  0
   37.8831  -13.8594   37.8460 C   0  0  0  0  0  0  0  0  0  0  0  0
   36.8537  -13.6231   36.9386 O   0  0  0  0  0  0  0  0  0  0  0  0
   36.9811  -18.6585   36.0323 N   0  0  0  0  0  0  0  0  0  0  0  0
   37.7612  -18.3665   35.4095 H   0  0  0  0  0  0  0  0  0  0  0  0
   37.3329  -19.5531   37.1062 C   0  0  0  0  0  0  0  0  0  0  0  0
   36.2704  -19.7593   38.1336 C   0  0  0  0  0  0  0  0  0  0  0  0
   36.7337  -20.8848   39.0565 C   0  0  0  0  0  0  0  0  0  0  0  0
   38.1637  -20.9687   39.0056 N   0  0  0  0  0  0  0  0  0  0  0  0
   38.5446  -21.5601   37.7418 C   0  0  0  0  0  0  0  0  0  0  0  0
   37.7805  -20.9073   36.5978 C   0  0  0  0  0  0  0  0  0  0  0  0
   38.5986  -21.7970   40.1091 C   0  0  0  0  0  0  0  0  0  0  0  0
   39.7010  -21.1860   40.9114 C   0  0  0  0  0  0  0  0  0  0  0  0
   37.4238  -22.0681   41.0145 C   0  0  0  0  0  0  0  0  0  0  0  0
   34.3117  -12.8067   36.4878 O   0  0  0  0  0  0  0  0  0  0  0  0
   33.5453  -12.4814   37.6208 C   0  0  0  0  0  0  0  0  0  0  0  0
   32.1559  -12.1089   37.2217 C   0  0  0  0  0  0  0  0  0  0  0  0
   31.2537  -12.1246   38.4238 C   0  0  0  0  0  0  0  0  0  0  0  0
   29.8773  -12.2473   37.9706 N   0  0  0  0  0  0  0  0  0  0  0  0
   29.3101  -10.9106   37.8164 C   0  0  0  0  0  0  0  0  0  0  0  0
   27.8440  -11.0558   38.1425 C   0  0  0  0  0  0  0  0  0  0  0  0
   27.7126  -12.4099   38.7834 C   0  0  0  0  0  0  0  0  0  0  0  0
   29.1378  -12.7664   39.1258 C   0  0  0  0  0  0  0  0  0  0  0  0
 24 25  1  0  0  0
 25  1  1  0  0  0
  1  2  2  0  0  0
  2  3  1  0  0  0
  3  4  2  0  0  0
  4 26  1  0  0  0
 26 28  1  0  0  0
 28 29  1  0  0  0
 29 30  1  0  0  0
 30 31  1  0  0  0
 31 32  1  0  0  0
 32 33  1  0  0  0
 31 34  1  0  0  0
 34 35  1  0  0  0
 34 36  1  0  0  0
  4  5  1  0  0  0
  5  6  2  0  0  0
  6  7  1  0  0  0
  7  8  2  0  0  0
  8  9  1  0  0  0
  9 10  2  0  0  0
 10 37  1  0  0  0
 37 38  1  0  0  0
 38 39  1  0  0  0
 39 40  1  0  0  0
 40 41  1  0  0  0
 41 42  1  0  0  0
 42 43  1  0  0  0
 43 44  1  0  0  0
 44 45  1  0  0  0
  6 11  1  0  0  0
 11 12  1  0  0  0
 12 13  1  0  0  0
 13 14  1  0  0  0
 14 15  1  0  0  0
 15 16  1  0  0  0
 16 17  1  0  0  0
 15 18  1  0  0  0
 18 19  2  0  0  0
 19 20  1  0  0  0
 20 21  2  0  0  0
 21 22  1  0  0  0
 22 23  2  0  0  0
 10  1  1  0  0  0
 45 41  1  0  0  0
 17 11  1  0  0  0
 23 18  1  0  0  0
  8  3  1  0  0  0
 33 28  1  0  0  0
 26 27  1  0  0  0
M  END
> <minimizedAffinity>
-7.99186

> <CNNscore>
0.4339843690

> <CNNaffinity>
7.1272726059

> <CNN_VS>
3.0931248665

> <CNNaffinity_variance>
0.2502650619

$$$$
[H]c1c([H])c([H])c(N2C([H])([H])C([H])([H])N(c3nc(N([H])C4([H])C([H])([H])C([H])([H])N(C([H])(C([H])([H])[H])C([H])([H])[H])C([H])([H])C4([H])[H])c4c([H])c(OC([H])([H])[H])c(OC([H])([H])C([H])([H])C([H])([H])N5C([H])([H])C([H])([H])C([H])([H])C5([H])[H])c([H])c4n3)C([H])([H])C([H])([H])C2([H])[H])c([H])c1[H]


 45 50  0  0  0  0  0  0  0  0999 V2000
   36.1466  -14.3723   36.7754 C   0  0  0  0  0  0  0  0  0  0  0  0
   36.4823  -15.7180   36.9371 C   0  0  0  0  0  0  0  0  0  0  0  0
   35.6008  -16.7395   36.6563 C   0  0  0  0  0  0  0  0  0  0  0  0
   35.9272  -18.0687   36.8145 C   0  0  0  0  0  0  0  0  0  0  0  0
   34.9665  -18.9611   36.5016 N   0  0  0  0  0  0  0  0  0  0  0  0
   33.7434  -18.6331   36.0567 C   0  0  0  0  0  0  0  0  0  0  0  0
   33.4537  -17.3302   35.9124 N   0  0  0  0  0  0  0  0  0  0  0  0
   34.3415  -16.3449   36.1966 C   0  0  0  0  0  0  0  0  0  0  0  0
   33.9651  -15.0480   36.0220 C   0  0  0  0  0  0  0  0  0  0  0  0
   34.8894  -14.0531   36.3190 C   0  0  0  0  0  0  0  0  0  0  0  0
   32.7525  -19.6003   35.7371 N   0  0  0  0  0  0  0  0  0  0  0  0
   32.3978  -19.7066   34.3410 C   0  0  0  0  0  0  0  0  0  0  0  0
   32.9400  -21.0270   33.7830 C   0  0  0  0  0  0  0  0  0  0  0  0
   31.8680  -22.0837   34.0038 C   0  0  0  0  0  0  0  0  0  0  0  0
   31.8338  -22.3059   35.4385 N   0  0  0  0  0  0  0  0  0  0  0  0
   31.2462  -21.4195   36.3859 C   0  0  0  0  0  0  0  0  0  0  0  0
   32.2220  -20.3497   36.8476 C   0  0  0  0  0  0  0  0  0  0  0  0
   32.4611  -23.4823   35.8991 C   0  0  0  0  0  0  0  0  0  0  0  0
   33.4161  -23.4539   36.9185 C   0  0  0  0  0  0  0  0  0  0  0  0
   34.0558  -24.5725   37.3810 C   0  0  0  0  0  0  0  0  0  0  0  0
   33.7833  -25.8093   36.8525 C   0  0  0  0  0  0  0  0  0  0  0  0
   32.8548  -25.8843   35.8526 C   0  0  0  0  0  0  0  0  0  0  0  0
   32.2035  -24.7426   35.3823 C   0  0  0  0  0  0  0  0  0  0  0  0
   38.2500  -13.5277   37.7332 C   0  0  0  0  0  0  0  0  0  0  0  0
   37.0427  -13.3551   37.0614 O   0  0  0  0  0  0  0  0  0  0  0  0
   37.2104  -18.4658   37.2761 N   0  0  0  0  0  0  0  0  0  0  0  0
   37.4331  -18.4705   38.2920 H   0  0  0  0  0  0  0  0  0  0  0  0
   38.2732  -18.8817   36.3958 C   0  0  0  0  0  0  0  0  0  0  0  0
   39.0381  -20.0808   36.8476 C   0  0  0  0  0  0  0  0  0  0  0  0
   39.9618  -20.4960   35.7042 C   0  0  0  0  0  0  0  0  0  0  0  0
   40.2078  -19.3577   34.8686 N   0  0  0  0  0  0  0  0  0  0  0  0
   39.0164  -19.0912   34.0929 C   0  0  0  0  0  0  0  0  0  0  0  0
   37.7825  -19.1270   34.9846 C   0  0  0  0  0  0  0  0  0  0  0  0
   41.3213  -19.6765   34.0018 C   0  0  0  0  0  0  0  0  0  0  0  0
   40.9114  -19.9870   32.5989 C   0  0  0  0  0  0  0  0  0  0  0  0
   42.2827  -18.5151   33.9874 C   0  0  0  0  0  0  0  0  0  0  0  0
   34.5768  -12.6859   36.1652 O   0  0  0  0  0  0  0  0  0  0  0  0
   33.8909  -12.0758   37.2300 C   0  0  0  0  0  0  0  0  0  0  0  0
   32.4748  -12.5457   37.2764 C   0  0  0  0  0  0  0  0  0  0  0  0
   31.5519  -11.3784   37.4885 C   0  0  0  0  0  0  0  0  0  0  0  0
   30.1862  -11.8727   37.5615 N   0  0  0  0  0  0  0  0  0  0  0  0
   29.2745  -10.7336   37.6200 C   0  0  0  0  0  0  0  0  0  0  0  0
   28.1044  -11.1973   38.4524 C   0  0  0  0  0  0  0  0  0  0  0  0
   28.5603  -12.4759   39.0995 C   0  0  0  0  0  0  0  0  0  0  0  0
   30.0560  -12.4432   38.9063 C   0  0  0  0  0  0  0  0  0  0  0  0
 24 25  1  0  0  0
 25  1  1  0  0  0
  1  2  2  0  0  0
  2  3  1  0  0  0
  3  4  2  0  0  0
  4 26  1  0  0  0
 26 28  1  0  0  0
 28 29  1  0  0  0
 29 30  1  0  0  0
 30 31  1  0  0  0
 31 32  1  0  0  0
 32 33  1  0  0  0
 31 34  1  0  0  0
 34 35  1  0  0  0
 34 36  1  0  0  0
  4  5  1  0  0  0
  5  6  2  0  0  0
  6  7  1  0  0  0
  7  8  2  0  0  0
  8  9  1  0  0  0
  9 10  2  0  0  0
 10 37  1  0  0  0
 37 38  1  0  0  0
 38 39  1  0  0  0
 39 40  1  0  0  0
 40 41  1  0  0  0
 41 42  1  0  0  0
 42 43  1  0  0  0
 43 44  1  0  0  0
 44 45  1  0  0  0
  6 11  1  0  0  0
 11 12  1  0  0  0
 12 13  1  0  0  0
 13 14  1  0  0  0
 14 15  1  0  0  0
 15 16  1  0  0  0
 16 17  1  0  0  0
 15 18  1  0  0  0
 18 19  2  0  0  0
 19 20  1  0  0  0
 20 21  2  0  0  0
 21 22  1  0  0  0
 22 23  2  0  0  0
 10  1  1  0  0  0
 45 41  1  0  0  0
 17 11  1  0  0  0
 23 18  1  0  0  0
  8  3  1  0  0  0
 33 28  1  0  0  0
 26 27  1  0  0  0
M  END
> <minimizedAffinity>
-7.74940

> <CNNscore>
0.4230368137

> <CNNaffinity>
7.4067673683

> <CNN_VS>
3.1333353519

> <CNNaffinity_variance>
0.0651587769

$$$$
[H]c1c([H])c([H])c(N2C([H])([H])C([H])([H])N(c3nc(N([H])C4([H])C([H])([H])C([H])([H])N(C([H])(C([H])([H])[H])C([H])([H])[H])C([H])([H])C4([H])[H])c4c([H])c(OC([H])([H])[H])c(OC([H])([H])C([H])([H])C([H])([H])N5C([H])([H])C([H])([H])C([H])([H])C5([H])[H])c([H])c4n3)C([H])([H])C([H])([H])C2([H])[H])c([H])c1[H]


 45 50  0  0  0  0  0  0  0  0999 V2000
   34.1093  -15.1044   36.2834 C   0  0  0  0  0  0  0  0  0  0  0  0
   34.0070  -16.2968   35.5640 C   0  0  0  0  0  0  0  0  0  0  0  0
   35.0593  -17.1778   35.4382 C   0  0  0  0  0  0  0  0  0  0  0  0
   34.9634  -18.3554   34.7293 C   0  0  0  0  0  0  0  0  0  0  0  0
   36.0722  -19.1209   34.6898 N   0  0  0  0  0  0  0  0  0  0  0  0
   37.2321  -18.8061   35.2874 C   0  0  0  0  0  0  0  0  0  0  0  0
   37.2960  -17.6525   35.9710 N   0  0  0  0  0  0  0  0  0  0  0  0
   36.2437  -16.8036   36.0785 C   0  0  0  0  0  0  0  0  0  0  0  0
   36.3949  -15.6532   36.7913 C   0  0  0  0  0  0  0  0  0  0  0  0
   35.3046  -14.7965   36.8894 C   0  0  0  0  0  0  0  0  0  0  0  0
   38.3838  -19.6362   35.2244 N   0  0  0  0  0  0  0  0  0  0  0  0
   38.6420  -20.2662   33.9505 C   0  0  0  0  0  0  0  0  0  0  0  0
   39.8722  -19.6164   33.3077 C   0  0  0  0  0  0  0  0  0  0  0  0
   41.0925  -20.3860   33.7908 C   0  0  0  0  0  0  0  0  0  0  0  0
   41.2259  -20.0550   35.1984 N   0  0  0  0  0  0  0  0  0  0  0  0
   40.4050  -20.5769   36.2389 C   0  0  0  0  0  0  0  0  0  0  0  0
   39.1465  -19.7494   36.4417 C   0  0  0  0  0  0  0  0  0  0  0  0
   42.2347  -19.1246   35.5240 C   0  0  0  0  0  0  0  0  0  0  0  0
   42.5258  -18.7914   36.8493 C   0  0  0  0  0  0  0  0  0  0  0  0
   43.4871  -17.8828   37.2025 C   0  0  0  0  0  0  0  0  0  0  0  0
   44.2319  -17.2377   36.2473 C   0  0  0  0  0  0  0  0  0  0  0  0
   43.9810  -17.5332   34.9369 C   0  0  0  0  0  0  0  0  0  0  0  0
   43.0004  -18.4601   34.5786 C   0  0  0  0  0  0  0  0  0  0  0  0
   32.4625  -13.5374   35.3413 C   0  0  0  0  0  0  0  0  0  0  0  0
   33.0432  -14.2276   36.4020 O   0  0  0  0  0  0  0  0  0  0  0  0
   33.7558  -18.7351   34.0851 N   0  0  0  0  0  0  0  0  0  0  0  0
   33.5408  -18.4089   33.1212 H   0  0  0  0  0  0  0  0  0  0  0  0
   32.7630  -19.5790   34.7011 C   0  0  0  0  0  0  0  0  0  0  0  0
   31.3864  -19.0051   34.7524 C   0  0  0  0  0  0  0  0  0  0  0  0
   30.4446  -20.1082   35.2313 C   0  0  0  0  0  0  0  0  0  0  0  0
   31.1993  -21.0729   35.9758 N   0  0  0  0  0  0  0  0  0  0  0  0
   31.9876  -21.8545   35.0486 C   0  0  0  0  0  0  0  0  0  0  0  0
   32.6916  -20.9446   34.0510 C   0  0  0  0  0  0  0  0  0  0  0  0
   30.2625  -21.9155   36.6868 C   0  0  0  0  0  0  0  0  0  0  0  0
   28.9351  -21.2680   36.9128 C   0  0  0  0  0  0  0  0  0  0  0  0
   30.0610  -23.1923   35.9106 C   0  0  0  0  0  0  0  0  0  0  0  0
   35.3803  -13.5856   37.6094 O   0  0  0  0  0  0  0  0  0  0  0  0
   36.0184  -12.5115   36.9646 C   0  0  0  0  0  0  0  0  0  0  0  0
   35.0175  -11.4887   36.5396 C   0  0  0  0  0  0  0  0  0  0  0  0
   34.0351  -11.2380   37.6492 C   0  0  0  0  0  0  0  0  0  0  0  0
   33.7590   -9.8116   37.7123 N   0  0  0  0  0  0  0  0  0  0  0  0
   32.3529   -9.5882   37.3882 C   0  0  0  0  0  0  0  0  0  0  0  0
   32.3062   -8.2434   36.7052 C   0  0  0  0  0  0  0  0  0  0  0  0
   33.7375   -7.9126   36.3832 C   0  0  0  0  0  0  0  0  0  0  0  0
   34.4405   -9.2370   36.5476 C   0  0  0  0  0  0  0  0  0  0  0  0
 24 25  1  0  0  0
 25  1  1  0  0  0
  1  2  2  0  0  0
  2  3  1  0  0  0
  3  4  2  0  0  0
  4 26  1  0  0  0
 26 28  1  0  0  0
 28 29  1  0  0  0
 29 30  1  0  0  0
 30 31  1  0  0  0
 31 32  1  0  0  0
 32 33  1  0  0  0
 31 34  1  0  0  0
 34 35  1  0  0  0
 34 36  1  0  0  0
  4  5  1  0  0  0
  5  6  2  0  0  0
  6  7  1  0  0  0
  7  8  2  0  0  0
  8  9  1  0  0  0
  9 10  2  0  0  0
 10 37  1  0  0  0
 37 38  1  0  0  0
 38 39  1  0  0  0
 39 40  1  0  0  0
 40 41  1  0  0  0
 41 42  1  0  0  0
 42 43  1  0  0  0
 43 44  1  0  0  0
 44 45  1  0  0  0
  6 11  1  0  0  0
 11 12  1  0  0  0
 12 13  1  0  0  0
 13 14  1  0  0  0
 14 15  1  0  0  0
 15 16  1  0  0  0
 16 17  1  0  0  0
 15 18  1  0  0  0
 18 19  2  0  0  0
 19 20  1  0  0  0
 20 21  2  0  0  0
 21 22  1  0  0  0
 22 23  2  0  0  0
 10  1  1  0  0  0
 45 41  1  0  0  0
 17 11  1  0  0  0
 23 18  1  0  0  0
  8  3  1  0  0  0
 33 28  1  0  0  0
 26 27  1  0  0  0
M  END
> <minimizedAffinity>
-7.71322

> <CNNscore>
0.3626440763

> <CNNaffinity>
7.1981649399

> <CNN_VS>
2.6103718281

> <CNNaffinity_variance>
0.0297509991

$$$$
[H]c1c([H])c([H])c(N2C([H])([H])C([H])([H])N(c3nc(N([H])C4([H])C([H])([H])C([H])([H])N(C([H])(C([H])([H])[H])C([H])([H])[H])C([H])([H])C4([H])[H])c4c([H])c(OC([H])([H])[H])c(OC([H])([H])C([H])([H])C([H])([H])N5C([H])([H])C([H])([H])C([H])([H])C5([H])[H])c([H])c4n3)C([H])([H])C([H])([H])C2([H])[H])c([H])c1[H]


 45 50  0  0  0  0  0  0  0  0999 V2000
   36.1948  -14.2932   36.5426 C   0  0  0  0  0  0  0  0  0  0  0  0
   36.5968  -15.6304   36.5515 C   0  0  0  0  0  0  0  0  0  0  0  0
   35.7149  -16.6696   36.3474 C   0  0  0  0  0  0  0  0  0  0  0  0
   36.1065  -17.9906   36.3554 C   0  0  0  0  0  0  0  0  0  0  0  0
   35.1370  -18.9025   36.1419 N   0  0  0  0  0  0  0  0  0  0  0  0
   33.8468  -18.6008   35.9277 C   0  0  0  0  0  0  0  0  0  0  0  0
   33.4945  -17.3054   35.9255 N   0  0  0  0  0  0  0  0  0  0  0  0
   34.3844  -16.3022   36.1292 C   0  0  0  0  0  0  0  0  0  0  0  0
   33.9417  -15.0146   36.1109 C   0  0  0  0  0  0  0  0  0  0  0  0
   34.8694  -14.0011   36.3221 C   0  0  0  0  0  0  0  0  0  0  0  0
   32.8488  -19.5882   35.7073 N   0  0  0  0  0  0  0  0  0  0  0  0
   32.3837  -19.7262   34.3468 C   0  0  0  0  0  0  0  0  0  0  0  0
   32.8999  -21.0490   33.7701 C   0  0  0  0  0  0  0  0  0  0  0  0
   31.8664  -22.1167   34.0962 C   0  0  0  0  0  0  0  0  0  0  0  0
   31.9524  -22.3120   35.5326 N   0  0  0  0  0  0  0  0  0  0  0  0
   31.4295  -21.4164   36.5089 C   0  0  0  0  0  0  0  0  0  0  0  0
   32.4224  -20.3240   36.8704 C   0  0  0  0  0  0  0  0  0  0  0  0
   32.6338  -23.4702   35.9615 C   0  0  0  0  0  0  0  0  0  0  0  0
   33.8764  -23.3980   36.5961 C   0  0  0  0  0  0  0  0  0  0  0  0
   34.5732  -24.5005   37.0126 C   0  0  0  0  0  0  0  0  0  0  0  0
   34.0724  -25.7639   36.8228 C   0  0  0  0  0  0  0  0  0  0  0  0
   32.8587  -25.8820   36.2058 C   0  0  0  0  0  0  0  0  0  0  0  0
   32.1496  -24.7567   35.7817 C   0  0  0  0  0  0  0  0  0  0  0  0
   38.2561  -13.3569   37.5069 C   0  0  0  0  0  0  0  0  0  0  0  0
   37.0921  -13.2580   36.7491 O   0  0  0  0  0  0  0  0  0  0  0  0
   37.4610  -18.3596   36.5713 N   0  0  0  0  0  0  0  0  0  0  0  0
   38.2157  -17.6440   36.5637 H   0  0  0  0  0  0  0  0  0  0  0  0
   37.8818  -19.7170   36.8113 C   0  0  0  0  0  0  0  0  0  0  0  0
   39.3552  -19.9092   36.9494 C   0  0  0  0  0  0  0  0  0  0  0  0
   39.5915  -21.3466   37.4089 C   0  0  0  0  0  0  0  0  0  0  0  0
   38.4683  -22.1487   37.0227 N   0  0  0  0  0  0  0  0  0  0  0  0
   37.3555  -21.8289   37.8897 C   0  0  0  0  0  0  0  0  0  0  0  0
   37.2018  -20.3198   38.0225 C   0  0  0  0  0  0  0  0  0  0  0  0
   38.8453  -23.5380   37.1665 C   0  0  0  0  0  0  0  0  0  0  0  0
   38.4647  -24.1225   38.4878 C   0  0  0  0  0  0  0  0  0  0  0  0
   38.1956  -24.3410   36.0682 C   0  0  0  0  0  0  0  0  0  0  0  0
   34.4908  -12.6420   36.3187 O   0  0  0  0  0  0  0  0  0  0  0  0
   33.8204  -12.1749   37.4628 C   0  0  0  0  0  0  0  0  0  0  0  0
   32.3899  -12.6012   37.4401 C   0  0  0  0  0  0  0  0  0  0  0  0
   31.4934  -11.4021   37.5732 C   0  0  0  0  0  0  0  0  0  0  0  0
   30.1106  -11.8522   37.5658 N   0  0  0  0  0  0  0  0  0  0  0  0
   29.2341  -10.6851   37.6072 C   0  0  0  0  0  0  0  0  0  0  0  0
   28.0092  -11.1289   38.3686 C   0  0  0  0  0  0  0  0  0  0  0  0
   28.3907  -12.4366   39.0057 C   0  0  0  0  0  0  0  0  0  0  0  0
   29.8944  -12.4492   38.8879 C   0  0  0  0  0  0  0  0  0  0  0  0
 24 25  1  0  0  0
 25  1  1  0  0  0
  1  2  2  0  0  0
  2  3  1  0  0  0
  3  4  2  0  0  0
  4 26  1  0  0  0
 26 28  1  0  0  0
 28 29  1  0  0  0
 29 30  1  0  0  0
 30 31  1  0  0  0
 31 32  1  0  0  0
 32 33  1  0  0  0
 31 34  1  0  0  0
 34 35  1  0  0  0
 34 36  1  0  0  0
  4  5  1  0  0  0
  5  6  2  0  0  0
  6  7  1  0  0  0
  7  8  2  0  0  0
  8  9  1  0  0  0
  9 10  2  0  0  0
 10 37  1  0  0  0
 37 38  1  0  0  0
 38 39  1  0  0  0
 39 40  1  0  0  0
 40 41  1  0  0  0
 41 42  1  0  0  0
 42 43  1  0  0  0
 43 44  1  0  0  0
 44 45  1  0  0  0
  6 11  1  0  0  0
 11 12  1  0  0  0
 12 13  1  0  0  0
 13 14  1  0  0  0
 14 15  1  0  0  0
 15 16  1  0  0  0
 16 17  1  0  0  0
 15 18  1  0  0  0
 18 19  2  0  0  0
 19 20  1  0  0  0
 20 21  2  0  0  0
 21 22  1  0  0  0
 22 23  2  0  0  0
 10  1  1  0  0  0
 45 41  1  0  0  0
 17 11  1  0  0  0
 23 18  1  0  0  0
  8  3  1  0  0  0
 33 28  1  0  0  0
 26 27  1  0  0  0
M  END
> <minimizedAffinity>
-7.40711

> <CNNscore>
0.2735967636

> <CNNaffinity>
6.9681320190

> <CNN_VS>
1.9064583778

> <CNNaffinity_variance>
0.0492665060

$$$$
[H]c1c([H])c([H])c(N2C([H])([H])C([H])([H])N(c3nc(N([H])C4([H])C([H])([H])C([H])([H])N(C([H])(C([H])([H])[H])C([H])([H])[H])C([H])([H])C4([H])[H])c4c([H])c(OC([H])([H])[H])c(OC([H])([H])C([H])([H])C([H])([H])N5C([H])([H])C([H])([H])C([H])([H])C5([H])[H])c([H])c4n3)C([H])([H])C([H])([H])C2([H])[H])c([H])c1[H]


 45 50  0  0  0  0  0  0  0  0999 V2000
   33.8345  -15.1416   35.6177 C   0  0  0  0  0  0  0  0  0  0  0  0
   33.8448  -16.4847   35.2358 C   0  0  0  0  0  0  0  0  0  0  0  0
   34.8072  -17.3702   35.6705 C   0  0  0  0  0  0  0  0  0  0  0  0
   34.8219  -18.6962   35.2963 C   0  0  0  0  0  0  0  0  0  0  0  0
   35.8228  -19.4473   35.7975 N   0  0  0  0  0  0  0  0  0  0  0  0
   36.7789  -18.9855   36.6185 C   0  0  0  0  0  0  0  0  0  0  0  0
   36.7391  -17.6894   36.9660 N   0  0  0  0  0  0  0  0  0  0  0  0
   35.7792  -16.8396   36.5228 C   0  0  0  0  0  0  0  0  0  0  0  0
   35.8137  -15.5390   36.9245 C   0  0  0  0  0  0  0  0  0  0  0  0
   34.8211  -14.6843   36.4591 C   0  0  0  0  0  0  0  0  0  0  0  0
   37.8219  -19.8052   37.1281 N   0  0  0  0  0  0  0  0  0  0  0  0
   37.4060  -21.0054   37.8157 C   0  0  0  0  0  0  0  0  0  0  0  0
   37.7495  -22.2246   36.9529 C   0  0  0  0  0  0  0  0  0  0  0  0
   39.1609  -22.6554   37.3229 C   0  0  0  0  0  0  0  0  0  0  0  0
   40.0309  -21.6136   36.8065 N   0  0  0  0  0  0  0  0  0  0  0  0
   40.1999  -20.3278   37.3954 C   0  0  0  0  0  0  0  0  0  0  0  0
   39.1638  -19.3327   36.8992 C   0  0  0  0  0  0  0  0  0  0  0  0
   40.7259  -21.9186   35.6175 C   0  0  0  0  0  0  0  0  0  0  0  0
   41.5749  -23.0245   35.5268 C   0  0  0  0  0  0  0  0  0  0  0  0
   42.2764  -23.3431   34.3951 C   0  0  0  0  0  0  0  0  0  0  0  0
   42.1773  -22.5722   33.2642 C   0  0  0  0  0  0  0  0  0  0  0  0
   41.3573  -21.4798   33.3077 C   0  0  0  0  0  0  0  0  0  0  0  0
   40.6428  -21.1564   34.4626 C   0  0  0  0  0  0  0  0  0  0  0  0
   32.1709  -14.3848   33.9700 C   0  0  0  0  0  0  0  0  0  0  0  0
   32.8607  -14.2621   35.1733 O   0  0  0  0  0  0  0  0  0  0  0  0
   33.8285  -19.2331   34.4348 N   0  0  0  0  0  0  0  0  0  0  0  0
   33.9279  -19.1683   33.4015 H   0  0  0  0  0  0  0  0  0  0  0  0
   32.6390  -19.8913   34.9136 C   0  0  0  0  0  0  0  0  0  0  0  0
   31.3837  -19.0920   34.8027 C   0  0  0  0  0  0  0  0  0  0  0  0
   30.2172  -20.0155   35.1485 C   0  0  0  0  0  0  0  0  0  0  0  0
   30.7002  -21.0877   35.9678 N   0  0  0  0  0  0  0  0  0  0  0  0
   31.4530  -21.9995   35.1347 C   0  0  0  0  0  0  0  0  0  0  0  0
   32.4182  -21.2305   34.2425 C   0  0  0  0  0  0  0  0  0  0  0  0
   29.5541  -21.7533   36.5479 C   0  0  0  0  0  0  0  0  0  0  0  0
   28.4209  -20.8279   36.8508 C   0  0  0  0  0  0  0  0  0  0  0  0
   29.0747  -22.8240   35.6007 C   0  0  0  0  0  0  0  0  0  0  0  0
   34.7868  -13.3231   36.8285 O   0  0  0  0  0  0  0  0  0  0  0  0
   34.3446  -13.0381   38.1323 C   0  0  0  0  0  0  0  0  0  0  0  0
   32.8533  -12.9873   38.1783 C   0  0  0  0  0  0  0  0  0  0  0  0
   32.3587  -11.7534   37.4768 C   0  0  0  0  0  0  0  0  0  0  0  0
   30.9162  -11.8534   37.3219 N   0  0  0  0  0  0  0  0  0  0  0  0
   30.3428  -10.5112   37.3635 C   0  0  0  0  0  0  0  0  0  0  0  0
   28.9784  -10.6757   37.9869 C   0  0  0  0  0  0  0  0  0  0  0  0
   28.9730  -12.0626   38.5683 C   0  0  0  0  0  0  0  0  0  0  0  0
   30.4347  -12.4352   38.5792 C   0  0  0  0  0  0  0  0  0  0  0  0
 24 25  1  0  0  0
 25  1  1  0  0  0
  1  2  2  0  0  0
  2  3  1  0  0  0
  3  4  2  0  0  0
  4 26  1  0  0  0
 26 28  1  0  0  0
 28 29  1  0  0  0
 29 30  1  0  0  0
 30 31  1  0  0  0
 31 32  1  0  0  0
 32 33  1  0  0  0
 31 34  1  0  0  0
 34 35  1  0  0  0
 34 36  1  0  0  0
  4  5  1  0  0  0
  5  6  2  0  0  0
  6  7  1  0  0  0
  7  8  2  0  0  0
  8  9  1  0  0  0
  9 10  2  0  0  0
 10 37  1  0  0  0
 37 38  1  0  0  0
 38 39  1  0  0  0
 39 40  1  0  0  0
 40 41  1  0  0  0
 41 42  1  0  0  0
 42 43  1  0  0  0
 43 44  1  0  0  0
 44 45  1  0  0  0
  6 11  1  0  0  0
 11 12  1  0  0  0
 12 13  1  0  0  0
 13 14  1  0  0  0
 14 15  1  0  0  0
 15 16  1  0  0  0
 16 17  1  0  0  0
 15 18  1  0  0  0
 18 19  2  0  0  0
 19 20  1  0  0  0
 20 21  2  0  0  0
 21 22  1  0  0  0
 22 23  2  0  0  0
 10  1  1  0  0  0
 45 41  1  0  0  0
 17 11  1  0  0  0
 23 18  1  0  0  0
  8  3  1  0  0  0
 33 28  1  0  0  0
 26 27  1  0  0  0
M  END
> <minimizedAffinity>
-6.09928

> <CNNscore>
0.2010871470

> <CNNaffinity>
6.6834220886

> <CNN_VS>
1.3439502716

> <CNNaffinity_variance>
0.0181772672

$$$$
[H]c1c([H])c([H])c(N2C([H])([H])C([H])([H])N(c3nc(N([H])C4([H])C([H])([H])C([H])([H])N(C([H])(C([H])([H])[H])C([H])([H])[H])C([H])([H])C4([H])[H])c4c([H])c(OC([H])([H])[H])c(OC([H])([H])C([H])([H])C([H])([H])N5C([H])([H])C([H])([H])C([H])([H])C5([H])[H])c([H])c4n3)C([H])([H])C([H])([H])C2([H])[H])c([H])c1[H]


 45 50  0  0  0  0  0  0  0  0999 V2000
   36.0080  -17.8477   35.9720 C   0  0  0  0  0  0  0  0  0  0  0  0
   37.1012  -18.5588   36.4712 C   0  0  0  0  0  0  0  0  0  0  0  0
   36.9650  -19.7712   37.1121 C   0  0  0  0  0  0  0  0  0  0  0  0
   38.0404  -20.4766   37.6066 C   0  0  0  0  0  0  0  0  0  0  0  0
   37.7595  -21.6485   38.2106 N   0  0  0  0  0  0  0  0  0  0  0  0
   36.5229  -22.1509   38.3520 C   0  0  0  0  0  0  0  0  0  0  0  0
   35.4946  -21.4416   37.8605 N   0  0  0  0  0  0  0  0  0  0  0  0
   35.6578  -20.2499   37.2335 C   0  0  0  0  0  0  0  0  0  0  0  0
   34.5593  -19.5959   36.7647 C   0  0  0  0  0  0  0  0  0  0  0  0
   34.7478  -18.3760   36.1253 C   0  0  0  0  0  0  0  0  0  0  0  0
   36.2616  -23.3902   38.9964 N   0  0  0  0  0  0  0  0  0  0  0  0
   37.1364  -23.7306   40.0941 C   0  0  0  0  0  0  0  0  0  0  0  0
   36.3582  -23.6231   41.4101 C   0  0  0  0  0  0  0  0  0  0  0  0
   35.7185  -24.9792   41.6674 C   0  0  0  0  0  0  0  0  0  0  0  0
   34.6779  -25.1125   40.6634 N   0  0  0  0  0  0  0  0  0  0  0  0
   34.9056  -25.4089   39.2890 C   0  0  0  0  0  0  0  0  0  0  0  0
   35.1594  -24.1543   38.4695 C   0  0  0  0  0  0  0  0  0  0  0  0
   33.3561  -24.9004   41.1080 C   0  0  0  0  0  0  0  0  0  0  0  0
   32.2594  -25.0784   40.2609 C   0  0  0  0  0  0  0  0  0  0  0  0
   30.9646  -24.8681   40.6528 C   0  0  0  0  0  0  0  0  0  0  0  0
   30.6723  -24.4617   41.9305 C   0  0  0  0  0  0  0  0  0  0  0  0
   31.7150  -24.2751   42.7939 C   0  0  0  0  0  0  0  0  0  0  0  0
   33.0347  -24.4902   42.3925 C   0  0  0  0  0  0  0  0  0  0  0  0
   36.2550  -15.3994   35.9744 C   0  0  0  0  0  0  0  0  0  0  0  0
   36.1591  -16.6297   35.3294 O   0  0  0  0  0  0  0  0  0  0  0  0
   39.3682  -19.9895   37.4757 N   0  0  0  0  0  0  0  0  0  0  0  0
   39.7112  -19.2105   38.0733 H   0  0  0  0  0  0  0  0  0  0  0  0
   40.3163  -20.5234   36.5305 C   0  0  0  0  0  0  0  0  0  0  0  0
   40.5132  -19.7046   35.2985 C   0  0  0  0  0  0  0  0  0  0  0  0
   41.6911  -20.3020   34.5313 C   0  0  0  0  0  0  0  0  0  0  0  0
   41.8359  -21.6793   34.9006 N   0  0  0  0  0  0  0  0  0  0  0  0
   42.3966  -21.7414   36.2325 C   0  0  0  0  0  0  0  0  0  0  0  0
   41.6692  -20.7781   37.1608 C   0  0  0  0  0  0  0  0  0  0  0  0
   42.7225  -22.3041   33.9433 C   0  0  0  0  0  0  0  0  0  0  0  0
   43.6354  -23.3175   34.5532 C   0  0  0  0  0  0  0  0  0  0  0  0
   41.8987  -22.9680   32.8691 C   0  0  0  0  0  0  0  0  0  0  0  0
   33.6615  -17.6365   35.6120 O   0  0  0  0  0  0  0  0  0  0  0  0
   33.2864  -17.9119   34.2853 C   0  0  0  0  0  0  0  0  0  0  0  0
   32.3720  -19.0909   34.2354 C   0  0  0  0  0  0  0  0  0  0  0  0
   31.2120  -18.8822   35.1681 C   0  0  0  0  0  0  0  0  0  0  0  0
   30.9321  -20.1360   35.8498 N   0  0  0  0  0  0  0  0  0  0  0  0
   31.6538  -21.2113   35.1752 C   0  0  0  0  0  0  0  0  0  0  0  0
   30.7890  -22.4376   35.3344 C   0  0  0  0  0  0  0  0  0  0  0  0
   29.4589  -21.9252   35.8137 C   0  0  0  0  0  0  0  0  0  0  0  0
   29.5366  -20.4470   35.5234 C   0  0  0  0  0  0  0  0  0  0  0  0
 24 25  1  0  0  0
 25  1  1  0  0  0
  1  2  2  0  0  0
  2  3  1  0  0  0
  3  4  2  0  0  0
  4 26  1  0  0  0
 26 28  1  0  0  0
 28 29  1  0  0  0
 29 30  1  0  0  0
 30 31  1  0  0  0
 31 32  1  0  0  0
 32 33  1  0  0  0
 31 34  1  0  0  0
 34 35  1  0  0  0
 34 36  1  0  0  0
  4  5  1  0  0  0
  5  6  2  0  0  0
  6  7  1  0  0  0
  7  8  2  0  0  0
  8  9  1  0  0  0
  9 10  2  0  0  0
 10 37  1  0  0  0
 37 38  1  0  0  0
 38 39  1  0  0  0
 39 40  1  0  0  0
 40 41  1  0  0  0
 41 42  1  0  0  0
 42 43  1  0  0  0
 43 44  1  0  0  0
 44 45  1  0  0  0
  6 11  1  0  0  0
 11 12  1  0  0  0
 12 13  1  0  0  0
 13 14  1  0  0  0
 14 15  1  0  0  0
 15 16  1  0  0  0
 16 17  1  0  0  0
 15 18  1  0  0  0
 18 19  2  0  0  0
 19 20  1  0  0  0
 20 21  2  0  0  0
 21 22  1  0  0  0
 22 23  2  0  0  0
 10  1  1  0  0  0
 45 41  1  0  0  0
 17 11  1  0  0  0
 23 18  1  0  0  0
  8  3  1  0  0  0
 33 28  1  0  0  0
 26 27  1  0  0  0
M  END
> <minimizedAffinity>
-4.80939

> <CNNscore>
0.1907512695

> <CNNaffinity>
5.8542118073

> <CNN_VS>
1.1166983843

> <CNNaffinity_variance>
0.5415054560

$$$$
[H]c1c([H])c([H])c(N2C([H])([H])C([H])([H])N(c3nc(N([H])C4([H])C([H])([H])C([H])([H])N(C([H])(C([H])([H])[H])C([H])([H])[H])C([H])([H])C4([H])[H])c4c([H])c(OC([H])([H])[H])c(OC([H])([H])C([H])([H])C([H])([H])N5C([H])([H])C([H])([H])C([H])([H])C5([H])[H])c([H])c4n3)C([H])([H])C([H])([H])C2([H])[H])c([H])c1[H]


 45 50  0  0  0  0  0  0  0  0999 V2000
   34.4811  -15.5712   36.2688 C   0  0  0  0  0  0  0  0  0  0  0  0
   34.5688  -16.8324   35.6758 C   0  0  0  0  0  0  0  0  0  0  0  0
   35.6803  -17.6364   35.8076 C   0  0  0  0  0  0  0  0  0  0  0  0
   35.7718  -18.8814   35.2242 C   0  0  0  0  0  0  0  0  0  0  0  0
   36.9181  -19.5580   35.4369 N   0  0  0  0  0  0  0  0  0  0  0  0
   37.9462  -19.0967   36.1660 C   0  0  0  0  0  0  0  0  0  0  0  0
   37.8288  -17.8806   36.7223 N   0  0  0  0  0  0  0  0  0  0  0  0
   36.7221  -17.1101   36.5760 C   0  0  0  0  0  0  0  0  0  0  0  0
   36.6863  -15.8875   37.1745 C   0  0  0  0  0  0  0  0  0  0  0  0
   35.5432  -15.1133   37.0123 C   0  0  0  0  0  0  0  0  0  0  0  0
   39.1426  -19.8363   36.3691 N   0  0  0  0  0  0  0  0  0  0  0  0
   40.1958  -19.6146   35.4060 C   0  0  0  0  0  0  0  0  0  0  0  0
   41.3327  -18.8336   36.0740 C   0  0  0  0  0  0  0  0  0  0  0  0
   42.2817  -19.8535   36.6855 C   0  0  0  0  0  0  0  0  0  0  0  0
   41.5589  -20.4317   37.8045 N   0  0  0  0  0  0  0  0  0  0  0  0
   40.5065  -21.3845   37.6891 C   0  0  0  0  0  0  0  0  0  0  0  0
   39.1521  -20.7190   37.5080 C   0  0  0  0  0  0  0  0  0  0  0  0
   41.9318  -19.9755   39.0861 C   0  0  0  0  0  0  0  0  0  0  0  0
   43.0735  -19.1947   39.2837 C   0  0  0  0  0  0  0  0  0  0  0  0
   43.4743  -18.7465   40.5137 C   0  0  0  0  0  0  0  0  0  0  0  0
   42.7556  -19.0497   41.6427 C   0  0  0  0  0  0  0  0  0  0  0  0
   41.6306  -19.8116   41.4963 C   0  0  0  0  0  0  0  0  0  0  0  0
   41.2234  -20.2677   40.2412 C   0  0  0  0  0  0  0  0  0  0  0  0
   32.9487  -14.1822   34.9356 C   0  0  0  0  0  0  0  0  0  0  0  0
   33.3574  -14.7732   36.1283 O   0  0  0  0  0  0  0  0  0  0  0  0
   34.7081  -19.4153   34.4491 N   0  0  0  0  0  0  0  0  0  0  0  0
   34.7350  -19.3776   33.4101 H   0  0  0  0  0  0  0  0  0  0  0  0
   33.5418  -20.0339   35.0275 C   0  0  0  0  0  0  0  0  0  0  0  0
   32.7478  -20.8864   34.0949 C   0  0  0  0  0  0  0  0  0  0  0  0
   31.6947  -21.6192   34.9237 C   0  0  0  0  0  0  0  0  0  0  0  0
   31.4441  -20.8732   36.1216 N   0  0  0  0  0  0  0  0  0  0  0  0
   32.5709  -21.0424   37.0125 C   0  0  0  0  0  0  0  0  0  0  0  0
   33.8792  -20.8504   36.2572 C   0  0  0  0  0  0  0  0  0  0  0  0
   30.2350  -21.3927   36.7225 C   0  0  0  0  0  0  0  0  0  0  0  0
   28.9939  -21.0132   35.9822 C   0  0  0  0  0  0  0  0  0  0  0  0
   30.3259  -22.8961   36.7917 C   0  0  0  0  0  0  0  0  0  0  0  0
   35.4280  -13.8357   37.5998 O   0  0  0  0  0  0  0  0  0  0  0  0
   35.8121  -12.7424   36.8037 C   0  0  0  0  0  0  0  0  0  0  0  0
   34.8157  -11.6368   36.9196 C   0  0  0  0  0  0  0  0  0  0  0  0
   33.6703  -12.0658   37.7933 C   0  0  0  0  0  0  0  0  0  0  0  0
   32.8902  -10.8908   38.1475 N   0  0  0  0  0  0  0  0  0  0  0  0
   31.5543  -11.0201   37.5723 C   0  0  0  0  0  0  0  0  0  0  0  0
   31.1134   -9.6115   37.2585 C   0  0  0  0  0  0  0  0  0  0  0  0
   32.3563   -8.7726   37.3720 C   0  0  0  0  0  0  0  0  0  0  0  0
   33.4636   -9.7969   37.3565 C   0  0  0  0  0  0  0  0  0  0  0  0
 24 25  1  0  0  0
 25  1  1  0  0  0
  1  2  2  0  0  0
  2  3  1  0  0  0
  3  4  2  0  0  0
  4 26  1  0  0  0
 26 28  1  0  0  0
 28 29  1  0  0  0
 29 30  1  0  0  0
 30 31  1  0  0  0
 31 32  1  0  0  0
 32 33  1  0  0  0
 31 34  1  0  0  0
 34 35  1  0  0  0
 34 36  1  0  0  0
  4  5  1  0  0  0
  5  6  2  0  0  0
  6  7  1  0  0  0
  7  8  2  0  0  0
  8  9  1  0  0  0
  9 10  2  0  0  0
 10 37  1  0  0  0
 37 38  1  0  0  0
 38 39  1  0  0  0
 39 40  1  0  0  0
 40 41  1  0  0  0
 41 42  1  0  0  0
 42 43  1  0  0  0
 43 44  1  0  0  0
 44 45  1  0  0  0
  6 11  1  0  0  0
 11 12  1  0  0  0
 12 13  1  0  0  0
 13 14  1  0  0  0
 14 15  1  0  0  0
 15 16  1  0  0  0
 16 17  1  0  0  0
 15 18  1  0  0  0
 18 19  2  0  0  0
 19 20  1  0  0  0
 20 21  2  0  0  0
 21 22  1  0  0  0
 22 23  2  0  0  0
 10  1  1  0  0  0
 45 41  1  0  0  0
 17 11  1  0  0  0
 23 18  1  0  0  0
  8  3  1  0  0  0
 33 28  1  0  0  0
 26 27  1  0  0  0
M  END
> <minimizedAffinity>
-7.89899

> <CNNscore>
0.1863268018

> <CNNaffinity>
6.6660985947

> <CNN_VS>
1.2420728207

> <CNNaffinity_variance>
0.1085263118

$$$$
[H]c1c(OC([H])([H])C([H])([H])C([H])([H])N2C([H])([H])C([H])([H])C([H])([H])C2([H])[H])c(OC([H])([H])[H])c([H])c2c(N([H])C3([H])C([H])([H])C([H])([H])N(C([H])(C([H])([H])[H])C([H])([H])[H])C([H])([H])C3([H])[H])nc(N3C([H])([H])C(F)(F)C(F)(F)C3([H])[H])nc12


 41 45  0  0  0  0  0  0  0  0999 V2000
   36.2078  -13.7257   36.8825 C   0  0  0  0  0  0  0  0  0  0  0  0
   36.7206  -14.9853   36.6621 C   0  0  0  0  0  0  0  0  0  0  0  0
   35.8459  -16.0023   36.3257 C   0  0  0  0  0  0  0  0  0  0  0  0
   36.2727  -17.2780   36.0862 C   0  0  0  0  0  0  0  0  0  0  0  0
   35.3681  -18.2295   35.7564 N   0  0  0  0  0  0  0  0  0  0  0  0
   34.0525  -17.9745   35.6523 C   0  0  0  0  0  0  0  0  0  0  0  0
   33.6373  -16.7204   35.8886 N   0  0  0  0  0  0  0  0  0  0  0  0
   34.4939  -15.7390   36.2191 C   0  0  0  0  0  0  0  0  0  0  0  0
   34.0234  -14.4478   36.4520 C   0  0  0  0  0  0  0  0  0  0  0  0
   34.8723  -13.4475   36.7811 C   0  0  0  0  0  0  0  0  0  0  0  0
   33.1152  -18.9884   35.2956 N   0  0  0  0  0  0  0  0  0  0  0  0
   31.6701  -18.9330   35.5421 C   0  0  0  0  0  0  0  0  0  0  0  0
   31.1974  -20.3570   35.3155 C   0  0  0  0  0  0  0  0  0  0  0  0
   29.8750  -20.4557   35.0096 F   0  0  0  0  0  0  0  0  0  0  0  0
   31.5350  -21.1296   36.4020 F   0  0  0  0  0  0  0  0  0  0  0  0
   32.1042  -20.7485   34.1429 C   0  0  0  0  0  0  0  0  0  0  0  0
   32.1005  -22.0865   33.8965 F   0  0  0  0  0  0  0  0  0  0  0  0
   31.7230  -19.9823   33.0532 F   0  0  0  0  0  0  0  0  0  0  0  0
   33.4461  -20.2276   34.6326 C   0  0  0  0  0  0  0  0  0  0  0  0
   38.4267  -12.9865   37.5972 C   0  0  0  0  0  0  0  0  0  0  0  0
   37.0991  -12.7191   37.2189 O   0  0  0  0  0  0  0  0  0  0  0  0
   37.6315  -17.6304   36.1762 N   0  0  0  0  0  0  0  0  0  0  0  0
   38.3065  -17.0412   36.6493 H   0  0  0  0  0  0  0  0  0  0  0  0
   38.1564  -18.8580   35.5990 C   0  0  0  0  0  0  0  0  0  0  0  0
   38.4779  -18.7449   34.1488 C   0  0  0  0  0  0  0  0  0  0  0  0
   39.6397  -19.6561   33.8105 C   0  0  0  0  0  0  0  0  0  0  0  0
   39.5271  -20.9105   34.4695 N   0  0  0  0  0  0  0  0  0  0  0  0
   39.6230  -20.7998   35.8838 C   0  0  0  0  0  0  0  0  0  0  0  0
   39.3462  -19.3803   36.3367 C   0  0  0  0  0  0  0  0  0  0  0  0
   40.2637  -21.9873   33.8923 C   0  0  0  0  0  0  0  0  0  0  0  0
   41.7693  -21.8204   34.0548 C   0  0  0  0  0  0  0  0  0  0  0  0
   39.9101  -23.2493   34.6935 C   0  0  0  0  0  0  0  0  0  0  0  0
   34.4566  -12.1352   37.0241 O   0  0  0  0  0  0  0  0  0  0  0  0
   33.5713  -11.9275   38.1054 C   0  0  0  0  0  0  0  0  0  0  0  0
   32.4189  -11.0827   37.5449 C   0  0  0  0  0  0  0  0  0  0  0  0
   31.3693  -12.0491   37.1003 C   0  0  0  0  0  0  0  0  0  0  0  0
   30.0671  -11.8453   37.6479 N   0  0  0  0  0  0  0  0  0  0  0  0
   29.7009  -10.4858   37.8957 C   0  0  0  0  0  0  0  0  0  0  0  0
   28.2998  -10.6692   38.4966 C   0  0  0  0  0  0  0  0  0  0  0  0
   28.4892  -11.9410   39.3229 C   0  0  0  0  0  0  0  0  0  0  0  0
   29.8512  -12.4733   38.9258 C   0  0  0  0  0  0  0  0  0  0  0  0
 20 21  1  0  0  0
 21  1  1  0  0  0
  1  2  2  0  0  0
  2  3  1  0  0  0
  3  4  2  0  0  0
  4 22  1  0  0  0
 22 24  1  0  0  0
 24 25  1  0  0  0
 25 26  1  0  0  0
 26 27  1  0  0  0
 27 28  1  0  0  0
 28 29  1  0  0  0
 27 30  1  0  0  0
 30 31  1  0  0  0
 30 32  1  0  0  0
  4  5  1  0  0  0
  5  6  2  0  0  0
  6  7  1  0  0  0
  7  8  2  0  0  0
  8  9  1  0  0  0
  9 10  2  0  0  0
 10 33  1  0  0  0
 33 34  1  0  0  0
 34 35  1  0  0  0
 35 36  1  0  0  0
 36 37  1  0  0  0
 37 38  1  0  0  0
 38 39  1  0  0  0
 39 40  1  0  0  0
 40 41  1  0  0  0
  6 11  1  0  0  0
 11 12  1  0  0  0
 12 13  1  0  0  0
 13 14  1  0  0  0
 13 15  1  0  0  0
 13 16  1  0  0  0
 16 17  1  0  0  0
 16 18  1  0  0  0
 16 19  1  0  0  0
 10  1  1  0  0  0
 41 37  1  0  0  0
 19 11  1  0  0  0
  8  3  1  0  0  0
 29 24  1  0  0  0
 22 23  1  0  0  0
M  END
> <minimizedAffinity>
-8.58764

> <CNNscore>
0.6556288600

> <CNNaffinity>
7.4033050537

> <CNN_VS>
4.8538203239

> <CNNaffinity_variance>
0.0319703706

$$$$
[H]c1c(OC([H])([H])C([H])([H])C([H])([H])N2C([H])([H])C([H])([H])C([H])([H])C2([H])[H])c(OC([H])([H])[H])c([H])c2c(N([H])C3([H])C([H])([H])C([H])([H])N(C([H])(C([H])([H])[H])C([H])([H])[H])C([H])([H])C3([H])[H])nc(N3C([H])([H])C(F)(F)C(F)(F)C3([H])[H])nc12


 41 45  0  0  0  0  0  0  0  0999 V2000
   32.2781  -20.6773   34.3532 C   0  0  0  0  0  0  0  0  0  0  0  0
   33.6111  -20.3474   34.2421 C   0  0  0  0  0  0  0  0  0  0  0  0
   34.0240  -19.1116   34.7057 C   0  0  0  0  0  0  0  0  0  0  0  0
   35.3279  -18.7087   34.6375 C   0  0  0  0  0  0  0  0  0  0  0  0
   35.6711  -17.4885   35.1125 N   0  0  0  0  0  0  0  0  0  0  0  0
   34.7775  -16.6436   35.6549 C   0  0  0  0  0  0  0  0  0  0  0  0
   33.4978  -17.0429   35.7198 N   0  0  0  0  0  0  0  0  0  0  0  0
   33.1046  -18.2441   35.2630 C   0  0  0  0  0  0  0  0  0  0  0  0
   31.7664  -18.6237   35.3530 C   0  0  0  0  0  0  0  0  0  0  0  0
   31.3545  -19.8307   34.9024 C   0  0  0  0  0  0  0  0  0  0  0  0
   35.1593  -15.3649   36.1577 N   0  0  0  0  0  0  0  0  0  0  0  0
   34.2494  -14.3816   36.7554 C   0  0  0  0  0  0  0  0  0  0  0  0
   35.0569  -13.0973   36.7893 C   0  0  0  0  0  0  0  0  0  0  0  0
   34.6245  -12.1998   37.7164 F   0  0  0  0  0  0  0  0  0  0  0  0
   35.1046  -12.5533   35.5271 F   0  0  0  0  0  0  0  0  0  0  0  0
   36.4400  -13.6685   37.1226 C   0  0  0  0  0  0  0  0  0  0  0  0
   37.4414  -12.7651   36.9440 F   0  0  0  0  0  0  0  0  0  0  0  0
   36.3762  -14.1793   38.4090 F   0  0  0  0  0  0  0  0  0  0  0  0
   36.5051  -14.8419   36.1577 C   0  0  0  0  0  0  0  0  0  0  0  0
   31.9683  -23.0825   34.6689 C   0  0  0  0  0  0  0  0  0  0  0  0
   31.8825  -21.9196   33.8831 O   0  0  0  0  0  0  0  0  0  0  0  0
   36.3257  -19.5302   34.0826 N   0  0  0  0  0  0  0  0  0  0  0  0
   36.1042  -20.2781   33.4360 H   0  0  0  0  0  0  0  0  0  0  0  0
   37.7357  -19.3623   34.3980 C   0  0  0  0  0  0  0  0  0  0  0  0
   38.1599  -20.0800   35.6326 C   0  0  0  0  0  0  0  0  0  0  0  0
   39.6054  -20.5131   35.5005 C   0  0  0  0  0  0  0  0  0  0  0  0
   40.4000  -19.5000   34.8981 N   0  0  0  0  0  0  0  0  0  0  0  0
   40.0310  -19.2401   33.5498 C   0  0  0  0  0  0  0  0  0  0  0  0
   38.6306  -19.7440   33.2640 C   0  0  0  0  0  0  0  0  0  0  0  0
   41.8036  -19.5812   35.1399 C   0  0  0  0  0  0  0  0  0  0  0  0
   42.3878  -20.9333   34.7503 C   0  0  0  0  0  0  0  0  0  0  0  0
   42.4767  -18.5672   34.2028 C   0  0  0  0  0  0  0  0  0  0  0  0
   30.0271  -20.2637   34.9683 O   0  0  0  0  0  0  0  0  0  0  0  0
   29.5972  -20.8477   36.1808 C   0  0  0  0  0  0  0  0  0  0  0  0
   28.6548  -21.9918   35.7820 C   0  0  0  0  0  0  0  0  0  0  0  0
   27.9493  -22.4079   37.0319 C   0  0  0  0  0  0  0  0  0  0  0  0
   27.7892  -23.8144   37.2144 N   0  0  0  0  0  0  0  0  0  0  0  0
   28.7545  -24.6417   36.5604 C   0  0  0  0  0  0  0  0  0  0  0  0
   28.2463  -26.0383   36.9463 C   0  0  0  0  0  0  0  0  0  0  0  0
   26.7324  -25.8351   36.8916 C   0  0  0  0  0  0  0  0  0  0  0  0
   26.5378  -24.3408   36.7338 C   0  0  0  0  0  0  0  0  0  0  0  0
 20 21  1  0  0  0
 21  1  1  0  0  0
  1  2  2  0  0  0
  2  3  1  0  0  0
  3  4  2  0  0  0
  4 22  1  0  0  0
 22 24  1  0  0  0
 24 25  1  0  0  0
 25 26  1  0  0  0
 26 27  1  0  0  0
 27 28  1  0  0  0
 28 29  1  0  0  0
 27 30  1  0  0  0
 30 31  1  0  0  0
 30 32  1  0  0  0
  4  5  1  0  0  0
  5  6  2  0  0  0
  6  7  1  0  0  0
  7  8  2  0  0  0
  8  9  1  0  0  0
  9 10  2  0  0  0
 10 33  1  0  0  0
 33 34  1  0  0  0
 34 35  1  0  0  0
 35 36  1  0  0  0
 36 37  1  0  0  0
 37 38  1  0  0  0
 38 39  1  0  0  0
 39 40  1  0  0  0
 40 41  1  0  0  0
  6 11  1  0  0  0
 11 12  1  0  0  0
 12 13  1  0  0  0
 13 14  1  0  0  0
 13 15  1  0  0  0
 13 16  1  0  0  0
 16 17  1  0  0  0
 16 18  1  0  0  0
 16 19  1  0  0  0
 10  1  1  0  0  0
 41 37  1  0  0  0
 19 11  1  0  0  0
  8  3  1  0  0  0
 29 24  1  0  0  0
 22 23  1  0  0  0
M  END
> <minimizedAffinity>
-7.56917

> <CNNscore>
0.5292260051

> <CNNaffinity>
6.7108087540

> <CNN_VS>
3.5515344143

> <CNNaffinity_variance>
0.1002005711

$$$$
[H]c1c(OC([H])([H])C([H])([H])C([H])([H])N2C([H])([H])C([H])([H])C([H])([H])C2([H])[H])c(OC([H])([H])[H])c([H])c2c(N([H])C3([H])C([H])([H])C([H])([H])N(C([H])(C([H])([H])[H])C([H])([H])[H])C([H])([H])C3([H])[H])nc(N3C([H])([H])C(F)(F)C(F)(F)C3([H])[H])nc12


 41 45  0  0  0  0  0  0  0  0999 V2000
   36.1056  -14.3488   36.5640 C   0  0  0  0  0  0  0  0  0  0  0  0
   36.5929  -15.6362   36.6195 C   0  0  0  0  0  0  0  0  0  0  0  0
   35.7145  -16.6822   36.4026 C   0  0  0  0  0  0  0  0  0  0  0  0
   36.1171  -17.9876   36.4352 C   0  0  0  0  0  0  0  0  0  0  0  0
   35.2106  -18.9673   36.2104 N   0  0  0  0  0  0  0  0  0  0  0  0
   33.9161  -18.7128   35.9533 C   0  0  0  0  0  0  0  0  0  0  0  0
   33.5246  -17.4295   35.9224 N   0  0  0  0  0  0  0  0  0  0  0  0
   34.3842  -16.4193   36.1385 C   0  0  0  0  0  0  0  0  0  0  0  0
   33.9391  -15.0991   36.0930 C   0  0  0  0  0  0  0  0  0  0  0  0
   34.7918  -14.0705   36.3036 C   0  0  0  0  0  0  0  0  0  0  0  0
   32.9771  -19.7583   35.7107 N   0  0  0  0  0  0  0  0  0  0  0  0
   33.2754  -21.1940   35.7540 C   0  0  0  0  0  0  0  0  0  0  0  0
   32.0766  -21.8452   35.0896 C   0  0  0  0  0  0  0  0  0  0  0  0
   31.8934  -23.1474   35.4397 F   0  0  0  0  0  0  0  0  0  0  0  0
   32.1656  -21.6847   33.7266 F   0  0  0  0  0  0  0  0  0  0  0  0
   30.9617  -20.9320   35.6126 C   0  0  0  0  0  0  0  0  0  0  0  0
   29.7840  -21.1063   34.9542 F   0  0  0  0  0  0  0  0  0  0  0  0
   30.8687  -21.1363   36.9799 F   0  0  0  0  0  0  0  0  0  0  0  0
   31.5836  -19.5630   35.3869 C   0  0  0  0  0  0  0  0  0  0  0  0
   38.1333  -13.4608   37.6035 C   0  0  0  0  0  0  0  0  0  0  0  0
   37.0001  -13.3133   36.7842 O   0  0  0  0  0  0  0  0  0  0  0  0
   37.4525  -18.3412   36.6998 N   0  0  0  0  0  0  0  0  0  0  0  0
   38.0113  -17.8458   37.3845 H   0  0  0  0  0  0  0  0  0  0  0  0
   38.1179  -19.4364   36.0117 C   0  0  0  0  0  0  0  0  0  0  0  0
   38.4194  -19.1465   34.5818 C   0  0  0  0  0  0  0  0  0  0  0  0
   39.6803  -19.8766   34.1674 C   0  0  0  0  0  0  0  0  0  0  0  0
   39.7194  -21.1933   34.7017 N   0  0  0  0  0  0  0  0  0  0  0  0
   39.8056  -21.2091   36.1208 C   0  0  0  0  0  0  0  0  0  0  0  0
   39.3635  -19.8828   36.7059 C   0  0  0  0  0  0  0  0  0  0  0  0
   40.5770  -22.1144   34.0298 C   0  0  0  0  0  0  0  0  0  0  0  0
   41.8987  -21.4839   33.6090 C   0  0  0  0  0  0  0  0  0  0  0  0
   40.9553  -23.1976   35.0511 C   0  0  0  0  0  0  0  0  0  0  0  0
   34.4012  -12.7288   36.2688 O   0  0  0  0  0  0  0  0  0  0  0  0
   34.1113  -12.1078   37.5042 C   0  0  0  0  0  0  0  0  0  0  0  0
   32.5818  -11.9933   37.5650 C   0  0  0  0  0  0  0  0  0  0  0  0
   32.2796  -10.5510   37.8131 C   0  0  0  0  0  0  0  0  0  0  0  0
   32.9259   -9.6235   36.9418 N   0  0  0  0  0  0  0  0  0  0  0  0
   34.2931   -9.3341   37.2429 C   0  0  0  0  0  0  0  0  0  0  0  0
   34.6183   -8.3065   36.1493 C   0  0  0  0  0  0  0  0  0  0  0  0
   33.3059   -7.5273   36.0666 C   0  0  0  0  0  0  0  0  0  0  0  0
   32.3220   -8.3165   36.9062 C   0  0  0  0  0  0  0  0  0  0  0  0
 20 21  1  0  0  0
 21  1  1  0  0  0
  1  2  2  0  0  0
  2  3  1  0  0  0
  3  4  2  0  0  0
  4 22  1  0  0  0
 22 24  1  0  0  0
 24 25  1  0  0  0
 25 26  1  0  0  0
 26 27  1  0  0  0
 27 28  1  0  0  0
 28 29  1  0  0  0
 27 30  1  0  0  0
 30 31  1  0  0  0
 30 32  1  0  0  0
  4  5  1  0  0  0
  5  6  2  0  0  0
  6  7  1  0  0  0
  7  8  2  0  0  0
  8  9  1  0  0  0
  9 10  2  0  0  0
 10 33  1  0  0  0
 33 34  1  0  0  0
 34 35  1  0  0  0
 35 36  1  0  0  0
 36 37  1  0  0  0
 37 38  1  0  0  0
 38 39  1  0  0  0
 39 40  1  0  0  0
 40 41  1  0  0  0
  6 11  1  0  0  0
 11 12  1  0  0  0
 12 13  1  0  0  0
 13 14  1  0  0  0
 13 15  1  0  0  0
 13 16  1  0  0  0
 16 17  1  0  0  0
 16 18  1  0  0  0
 16 19  1  0  0  0
 10  1  1  0  0  0
 41 37  1  0  0  0
 19 11  1  0  0  0
  8  3  1  0  0  0
 29 24  1  0  0  0
 22 23  1  0  0  0
M  END
> <minimizedAffinity>
-7.88745

> <CNNscore>
0.5167337060

> <CNNaffinity>
7.1871132851

> <CNN_VS>
3.7138237953

> <CNNaffinity_variance>
0.1273146421

$$$$
[H]c1c(OC([H])([H])C([H])([H])C([H])([H])N2C([H])([H])C([H])([H])C([H])([H])C2([H])[H])c(OC([H])([H])[H])c([H])c2c(N([H])C3([H])C([H])([H])C([H])([H])N(C([H])(C([H])([H])[H])C([H])([H])[H])C([H])([H])C3([H])[H])nc(N3C([H])([H])C(F)(F)C(F)(F)C3([H])[H])nc12


 41 45  0  0  0  0  0  0  0  0999 V2000
   40.1699  -19.9531   37.1992 C   0  0  0  0  0  0  0  0  0  0  0  0
   39.3249  -18.8726   37.0707 C   0  0  0  0  0  0  0  0  0  0  0  0
   38.0189  -19.1017   36.6774 C   0  0  0  0  0  0  0  0  0  0  0  0
   37.1158  -18.0868   36.5306 C   0  0  0  0  0  0  0  0  0  0  0  0
   35.8501  -18.3752   36.1470 N   0  0  0  0  0  0  0  0  0  0  0  0
   35.4349  -19.6296   35.9005 C   0  0  0  0  0  0  0  0  0  0  0  0
   36.3249  -20.6235   36.0455 N   0  0  0  0  0  0  0  0  0  0  0  0
   37.5934  -20.3914   36.4242 C   0  0  0  0  0  0  0  0  0  0  0  0
   38.4864  -21.4519   36.5682 C   0  0  0  0  0  0  0  0  0  0  0  0
   39.7651  -21.2364   36.9529 C   0  0  0  0  0  0  0  0  0  0  0  0
   34.0947  -19.9149   35.5052 N   0  0  0  0  0  0  0  0  0  0  0  0
   33.1784  -20.8223   36.2045 C   0  0  0  0  0  0  0  0  0  0  0  0
   32.0504  -21.0499   35.2154 C   0  0  0  0  0  0  0  0  0  0  0  0
   30.8824  -21.4418   35.7934 F   0  0  0  0  0  0  0  0  0  0  0  0
   32.4653  -21.9290   34.2425 F   0  0  0  0  0  0  0  0  0  0  0  0
   31.9609  -19.6502   34.5964 C   0  0  0  0  0  0  0  0  0  0  0  0
   31.2087  -19.6210   33.4633 F   0  0  0  0  0  0  0  0  0  0  0  0
   31.5094  -18.7904   35.5848 F   0  0  0  0  0  0  0  0  0  0  0  0
   33.4316  -19.3501   34.3537 C   0  0  0  0  0  0  0  0  0  0  0  0
   41.8290  -19.5145   38.9415 C   0  0  0  0  0  0  0  0  0  0  0  0
   41.4749  -19.7046   37.5940 O   0  0  0  0  0  0  0  0  0  0  0  0
   37.4686  -16.7457   36.7658 N   0  0  0  0  0  0  0  0  0  0  0  0
   38.4266  -16.4240   36.6925 H   0  0  0  0  0  0  0  0  0  0  0  0
   36.4870  -15.7354   37.1284 C   0  0  0  0  0  0  0  0  0  0  0  0
   37.0844  -14.5186   37.7462 C   0  0  0  0  0  0  0  0  0  0  0  0
   36.2453  -13.3057   37.4007 C   0  0  0  0  0  0  0  0  0  0  0  0
   34.8555  -13.5945   37.4780 N   0  0  0  0  0  0  0  0  0  0  0  0
   34.4364  -14.5464   36.5085 C   0  0  0  0  0  0  0  0  0  0  0  0
   35.6159  -15.3386   35.9811 C   0  0  0  0  0  0  0  0  0  0  0  0
   33.9923  -12.4701   37.6393 C   0  0  0  0  0  0  0  0  0  0  0  0
   34.4672  -11.2505   36.8593 C   0  0  0  0  0  0  0  0  0  0  0  0
   32.6435  -12.8498   37.0101 C   0  0  0  0  0  0  0  0  0  0  0  0
   40.7023  -22.2609   37.1143 O   0  0  0  0  0  0  0  0  0  0  0  0
   41.6770  -22.4106   36.1027 C   0  0  0  0  0  0  0  0  0  0  0  0
   40.8959  -22.5811   34.7925 C   0  0  0  0  0  0  0  0  0  0  0  0
   41.7150  -21.9253   33.7285 C   0  0  0  0  0  0  0  0  0  0  0  0
   41.3460  -20.5865   33.3989 N   0  0  0  0  0  0  0  0  0  0  0  0
   41.9743  -19.5591   34.1694 C   0  0  0  0  0  0  0  0  0  0  0  0
   41.3189  -18.3068   33.5694 C   0  0  0  0  0  0  0  0  0  0  0  0
   39.8938  -18.8006   33.3215 C   0  0  0  0  0  0  0  0  0  0  0  0
   39.9447  -20.2960   33.5598 C   0  0  0  0  0  0  0  0  0  0  0  0
 20 21  1  0  0  0
 21  1  1  0  0  0
  1  2  2  0  0  0
  2  3  1  0  0  0
  3  4  2  0  0  0
  4 22  1  0  0  0
 22 24  1  0  0  0
 24 25  1  0  0  0
 25 26  1  0  0  0
 26 27  1  0  0  0
 27 28  1  0  0  0
 28 29  1  0  0  0
 27 30  1  0  0  0
 30 31  1  0  0  0
 30 32  1  0  0  0
  4  5  1  0  0  0
  5  6  2  0  0  0
  6  7  1  0  0  0
  7  8  2  0  0  0
  8  9  1  0  0  0
  9 10  2  0  0  0
 10 33  1  0  0  0
 33 34  1  0  0  0
 34 35  1  0  0  0
 35 36  1  0  0  0
 36 37  1  0  0  0
 37 38  1  0  0  0
 38 39  1  0  0  0
 39 40  1  0  0  0
 40 41  1  0  0  0
  6 11  1  0  0  0
 11 12  1  0  0  0
 12 13  1  0  0  0
 13 14  1  0  0  0
 13 15  1  0  0  0
 13 16  1  0  0  0
 16 17  1  0  0  0
 16 18  1  0  0  0
 16 19  1  0  0  0
 10  1  1  0  0  0
 41 37  1  0  0  0
 19 11  1  0  0  0
  8  3  1  0  0  0
 29 24  1  0  0  0
 22 23  1  0  0  0
M  END
> <minimizedAffinity>
-7.24107

> <CNNscore>
0.2401985079

> <CNNaffinity>
6.5956115723

> <CNN_VS>
1.5842560530

> <CNNaffinity_variance>
0.4533933103

$$$$
[H]c1c(OC([H])([H])C([H])([H])C([H])([H])N2C([H])([H])C([H])([H])C([H])([H])C2([H])[H])c(OC([H])([H])[H])c([H])c2c(N([H])C3([H])C([H])([H])C([H])([H])N(C([H])(C([H])([H])[H])C([H])([H])[H])C([H])([H])C3([H])[H])nc(N3C([H])([H])C(F)(F)C(F)(F)C3([H])[H])nc12


 41 45  0  0  0  0  0  0  0  0999 V2000
   39.1810  -21.8766   37.7314 C   0  0  0  0  0  0  0  0  0  0  0  0
   37.8326  -21.6259   37.8614 C   0  0  0  0  0  0  0  0  0  0  0  0
   37.3819  -20.3330   37.6674 C   0  0  0  0  0  0  0  0  0  0  0  0
   36.0607  -20.0006   37.7729 C   0  0  0  0  0  0  0  0  0  0  0  0
   35.6807  -18.7178   37.5670 N   0  0  0  0  0  0  0  0  0  0  0  0
   36.5537  -17.7431   37.2599 C   0  0  0  0  0  0  0  0  0  0  0  0
   37.8504  -18.0734   37.1575 N   0  0  0  0  0  0  0  0  0  0  0  0
   38.2802  -19.3319   37.3518 C   0  0  0  0  0  0  0  0  0  0  0  0
   39.6353  -19.6355   37.2315 C   0  0  0  0  0  0  0  0  0  0  0  0
   40.0840  -20.8976   37.4193 C   0  0  0  0  0  0  0  0  0  0  0  0
   36.1334  -16.3985   37.0384 N   0  0  0  0  0  0  0  0  0  0  0  0
   35.0522  -15.9847   36.1373 C   0  0  0  0  0  0  0  0  0  0  0  0
   35.2417  -14.4864   35.9893 C   0  0  0  0  0  0  0  0  0  0  0  0
   34.1133  -13.8231   35.6168 F   0  0  0  0  0  0  0  0  0  0  0  0
   36.2911  -14.2400   35.1352 F   0  0  0  0  0  0  0  0  0  0  0  0
   35.6862  -14.1385   37.4147 C   0  0  0  0  0  0  0  0  0  0  0  0
   36.2023  -12.8838   37.5155 F   0  0  0  0  0  0  0  0  0  0  0  0
   34.6037  -14.3622   38.2503 F   0  0  0  0  0  0  0  0  0  0  0  0
   36.7078  -15.2349   37.6715 C   0  0  0  0  0  0  0  0  0  0  0  0
   39.4714  -24.1752   36.9488 C   0  0  0  0  0  0  0  0  0  0  0  0
   39.6145  -23.1780   37.9297 O   0  0  0  0  0  0  0  0  0  0  0  0
   35.0824  -20.9590   38.0933 N   0  0  0  0  0  0  0  0  0  0  0  0
   34.9274  -21.2671   39.0460 H   0  0  0  0  0  0  0  0  0  0  0  0
   34.2315  -21.5693   37.0837 C   0  0  0  0  0  0  0  0  0  0  0  0
   34.0546  -23.0377   37.2617 C   0  0  0  0  0  0  0  0  0  0  0  0
   32.6869  -23.4521   36.7594 C   0  0  0  0  0  0  0  0  0  0  0  0
   32.3528  -22.7865   35.5486 N   0  0  0  0  0  0  0  0  0  0  0  0
   32.2084  -21.3818   35.7145 C   0  0  0  0  0  0  0  0  0  0  0  0
   32.8934  -20.9121   36.9822 C   0  0  0  0  0  0  0  0  0  0  0  0
   31.3497  -23.4110   34.7492 C   0  0  0  0  0  0  0  0  0  0  0  0
   31.5895  -24.9050   34.5703 C   0  0  0  0  0  0  0  0  0  0  0  0
   30.0298  -23.3059   35.5278 C   0  0  0  0  0  0  0  0  0  0  0  0
   41.4300  -21.2590   37.3103 O   0  0  0  0  0  0  0  0  0  0  0  0
   42.1288  -20.8116   36.1669 C   0  0  0  0  0  0  0  0  0  0  0  0
   41.4247  -21.4602   34.9671 C   0  0  0  0  0  0  0  0  0  0  0  0
   41.1615  -20.3596   33.9911 C   0  0  0  0  0  0  0  0  0  0  0  0
   39.8865  -19.7272   34.0991 N   0  0  0  0  0  0  0  0  0  0  0  0
   38.7582  -20.5373   33.7608 C   0  0  0  0  0  0  0  0  0  0  0  0
   37.6130  -19.5333   33.9564 C   0  0  0  0  0  0  0  0  0  0  0  0
   38.2519  -18.2424   33.4450 C   0  0  0  0  0  0  0  0  0  0  0  0
   39.7179  -18.5738   33.2534 C   0  0  0  0  0  0  0  0  0  0  0  0
 20 21  1  0  0  0
 21  1  1  0  0  0
  1  2  2  0  0  0
  2  3  1  0  0  0
  3  4  2  0  0  0
  4 22  1  0  0  0
 22 24  1  0  0  0
 24 25  1  0  0  0
 25 26  1  0  0  0
 26 27  1  0  0  0
 27 28  1  0  0  0
 28 29  1  0  0  0
 27 30  1  0  0  0
 30 31  1  0  0  0
 30 32  1  0  0  0
  4  5  1  0  0  0
  5  6  2  0  0  0
  6  7  1  0  0  0
  7  8  2  0  0  0
  8  9  1  0  0  0
  9 10  2  0  0  0
 10 33  1  0  0  0
 33 34  1  0  0  0
 34 35  1  0  0  0
 35 36  1  0  0  0
 36 37  1  0  0  0
 37 38  1  0  0  0
 38 39  1  0  0  0
 39 40  1  0  0  0
 40 41  1  0  0  0
  6 11  1  0  0  0
 11 12  1  0  0  0
 12 13  1  0  0  0
 13 14  1  0  0  0
 13 15  1  0  0  0
 13 16  1  0  0  0
 16 17  1  0  0  0
 16 18  1  0  0  0
 16 19  1  0  0  0
 10  1  1  0  0  0
 41 37  1  0  0  0
 19 11  1  0  0  0
  8  3  1  0  0  0
 29 24  1  0  0  0
 22 23  1  0  0  0
M  END
> <minimizedAffinity>
-5.73520

> <CNNscore>
0.2326916456

> <CNNaffinity>
6.2965412140

> <CNN_VS>
1.4651525021

> <CNNaffinity_variance>
0.0561522432

$$$$
[H]c1c(OC([H])([H])C([H])([H])C([H])([H])N2C([H])([H])C([H])([H])C([H])([H])C2([H])[H])c(OC([H])([H])[H])c([H])c2c(N([H])C3([H])C([H])([H])C([H])([H])N(C([H])(C([H])([H])[H])C([H])([H])[H])C([H])([H])C3([H])[H])nc(N3C([H])([H])C(F)(F)C(F)(F)C3([H])[H])nc12


 41 45  0  0  0  0  0  0  0  0999 V2000
   36.0033  -14.7865   36.0485 C   0  0  0  0  0  0  0  0  0  0  0  0
   36.4963  -16.0530   35.8226 C   0  0  0  0  0  0  0  0  0  0  0  0
   35.6012  -17.1051   35.7545 C   0  0  0  0  0  0  0  0  0  0  0  0
   36.0066  -18.3904   35.5293 C   0  0  0  0  0  0  0  0  0  0  0  0
   35.0818  -19.3769   35.4689 N   0  0  0  0  0  0  0  0  0  0  0  0
   33.7662  -19.1483   35.6223 C   0  0  0  0  0  0  0  0  0  0  0  0
   33.3720  -17.8847   35.8437 N   0  0  0  0  0  0  0  0  0  0  0  0
   34.2492  -16.8688   35.9125 C   0  0  0  0  0  0  0  0  0  0  0  0
   33.7993  -15.5692   36.1393 C   0  0  0  0  0  0  0  0  0  0  0  0
   34.6681  -14.5347   36.2068 C   0  0  0  0  0  0  0  0  0  0  0  0
   32.8056  -20.1997   35.5472 N   0  0  0  0  0  0  0  0  0  0  0  0
   31.3813  -20.0277   35.2409 C   0  0  0  0  0  0  0  0  0  0  0  0
   30.7525  -21.3527   35.6306 C   0  0  0  0  0  0  0  0  0  0  0  0
   29.5718  -21.6070   35.0036 F   0  0  0  0  0  0  0  0  0  0  0  0
   30.6349  -21.4184   36.9993 F   0  0  0  0  0  0  0  0  0  0  0  0
   31.8690  -22.3085   35.1945 C   0  0  0  0  0  0  0  0  0  0  0  0
   31.7038  -23.5692   35.6785 F   0  0  0  0  0  0  0  0  0  0  0  0
   31.9453  -22.2502   33.8122 F   0  0  0  0  0  0  0  0  0  0  0  0
   33.0897  -21.5993   35.7592 C   0  0  0  0  0  0  0  0  0  0  0  0
   37.7352  -13.5333   37.2362 C   0  0  0  0  0  0  0  0  0  0  0  0
   36.9149  -13.7446   36.1139 O   0  0  0  0  0  0  0  0  0  0  0  0
   37.3644  -18.7167   35.3605 N   0  0  0  0  0  0  0  0  0  0  0  0
   37.8039  -18.7211   34.4477 H   0  0  0  0  0  0  0  0  0  0  0  0
   38.2246  -19.0682   36.4795 C   0  0  0  0  0  0  0  0  0  0  0  0
   37.7489  -20.2525   37.2480 C   0  0  0  0  0  0  0  0  0  0  0  0
   38.9354  -21.0004   37.8201 C   0  0  0  0  0  0  0  0  0  0  0  0
   39.9182  -20.1080   38.3284 N   0  0  0  0  0  0  0  0  0  0  0  0
   40.5155  -19.3111   37.3136 C   0  0  0  0  0  0  0  0  0  0  0  0
   39.6473  -19.2739   36.0719 C   0  0  0  0  0  0  0  0  0  0  0  0
   40.8247  -20.6561   39.2839 C   0  0  0  0  0  0  0  0  0  0  0  0
   41.7880  -19.6155   39.8412 C   0  0  0  0  0  0  0  0  0  0  0  0
   39.9839  -21.1106   40.4864 C   0  0  0  0  0  0  0  0  0  0  0  0
   34.2732  -13.2126   36.4305 O   0  0  0  0  0  0  0  0  0  0  0  0
   34.1843  -12.7830   37.7735 C   0  0  0  0  0  0  0  0  0  0  0  0
   32.7160  -12.9759   38.1771 C   0  0  0  0  0  0  0  0  0  0  0  0
   31.9008  -12.2825   37.1341 C   0  0  0  0  0  0  0  0  0  0  0  0
   30.5293  -12.0637   37.4635 N   0  0  0  0  0  0  0  0  0  0  0  0
   30.0995  -10.7003   37.4694 C   0  0  0  0  0  0  0  0  0  0  0  0
   28.6318  -10.8621   37.8904 C   0  0  0  0  0  0  0  0  0  0  0  0
   28.7314  -12.0040   38.9016 C   0  0  0  0  0  0  0  0  0  0  0  0
   30.1482  -12.5255   38.7732 C   0  0  0  0  0  0  0  0  0  0  0  0
 20 21  1  0  0  0
 21  1  1  0  0  0
  1  2  2  0  0  0
  2  3  1  0  0  0
  3  4  2  0  0  0
  4 22  1  0  0  0
 22 24  1  0  0  0
 24 25  1  0  0  0
 25 26  1  0  0  0
 26 27  1  0  0  0
 27 28  1  0  0  0
 28 29  1  0  0  0
 27 30  1  0  0  0
 30 31  1  0  0  0
 30 32  1  0  0  0
  4  5  1  0  0  0
  5  6  2  0  0  0
  6  7  1  0  0  0
  7  8  2  0  0  0
  8  9  1  0  0  0
  9 10  2  0  0  0
 10 33  1  0  0  0
 33 34  1  0  0  0
 34 35  1  0  0  0
 35 36  1  0  0  0
 36 37  1  0  0  0
 37 38  1  0  0  0
 38 39  1  0  0  0
 39 40  1  0  0  0
 40 41  1  0  0  0
  6 11  1  0  0  0
 11 12  1  0  0  0
 12 13  1  0  0  0
 13 14  1  0  0  0
 13 15  1  0  0  0
 13 16  1  0  0  0
 16 17  1  0  0  0
 16 18  1  0  0  0
 16 19  1  0  0  0
 10  1  1  0  0  0
 41 37  1  0  0  0
 19 11  1  0  0  0
  8  3  1  0  0  0
 29 24  1  0  0  0
 22 23  1  0  0  0
M  END
> <minimizedAffinity>
-8.00050

> <CNNscore>
0.2107082009

> <CNNaffinity>
6.5949301720

> <CNN_VS>
1.3896058798

> <CNNaffinity_variance>
0.2134766579

$$$$
[H]c1c(OC([H])([H])C([H])([H])C([H])([H])N2C([H])([H])C([H])([H])C([H])([H])C2([H])[H])c(OC([H])([H])[H])c([H])c2c(N([H])C3([H])C([H])([H])C([H])([H])N(C([H])(C([H])([H])[H])C([H])([H])[H])C([H])([H])C3([H])[H])nc(N3C([H])([H])C(F)(F)C(F)(F)C3([H])[H])nc12


 41 45  0  0  0  0  0  0  0  0999 V2000
   39.4012  -21.7585   37.5537 C   0  0  0  0  0  0  0  0  0  0  0  0
   38.0446  -21.5406   37.6542 C   0  0  0  0  0  0  0  0  0  0  0  0
   37.5716  -20.2509   37.4938 C   0  0  0  0  0  0  0  0  0  0  0  0
   36.2411  -19.9499   37.5735 C   0  0  0  0  0  0  0  0  0  0  0  0
   35.8393  -18.6686   37.4030 N   0  0  0  0  0  0  0  0  0  0  0  0
   36.6992  -17.6655   37.1559 C   0  0  0  0  0  0  0  0  0  0  0  0
   38.0051  -17.9652   37.0788 N   0  0  0  0  0  0  0  0  0  0  0  0
   38.4564  -19.2207   37.2400 C   0  0  0  0  0  0  0  0  0  0  0  0
   39.8206  -19.4918   37.1476 C   0  0  0  0  0  0  0  0  0  0  0  0
   40.2911  -20.7504   37.3027 C   0  0  0  0  0  0  0  0  0  0  0  0
   36.2562  -16.3227   36.9709 N   0  0  0  0  0  0  0  0  0  0  0  0
   35.0726  -15.9174   36.2047 C   0  0  0  0  0  0  0  0  0  0  0  0
   35.2440  -14.4215   36.0155 C   0  0  0  0  0  0  0  0  0  0  0  0
   34.0790  -13.7601   35.7765 F   0  0  0  0  0  0  0  0  0  0  0  0
   36.1804  -14.1886   35.0355 F   0  0  0  0  0  0  0  0  0  0  0  0
   35.8611  -14.0571   37.3707 C   0  0  0  0  0  0  0  0  0  0  0  0
   36.3871  -12.8026   37.3912 F   0  0  0  0  0  0  0  0  0  0  0  0
   34.8897  -14.2675   38.3362 F   0  0  0  0  0  0  0  0  0  0  0  0
   36.9055  -15.1529   37.5136 C   0  0  0  0  0  0  0  0  0  0  0  0
   39.6067  -24.0662   36.7709 C   0  0  0  0  0  0  0  0  0  0  0  0
   39.8571  -23.0570   37.7174 O   0  0  0  0  0  0  0  0  0  0  0  0
   35.2752  -20.9393   37.8314 N   0  0  0  0  0  0  0  0  0  0  0  0
   35.1041  -21.7009   37.1855 H   0  0  0  0  0  0  0  0  0  0  0  0
   34.4610  -20.9358   39.0367 C   0  0  0  0  0  0  0  0  0  0  0  0
   33.5486  -22.1086   39.1431 C   0  0  0  0  0  0  0  0  0  0  0  0
   33.3423  -22.4648   40.6009 C   0  0  0  0  0  0  0  0  0  0  0  0
   33.1846  -21.3025   41.4040 N   0  0  0  0  0  0  0  0  0  0  0  0
   34.3567  -20.4988   41.4452 C   0  0  0  0  0  0  0  0  0  0  0  0
   35.2758  -20.8201   40.2838 C   0  0  0  0  0  0  0  0  0  0  0  0
   32.5341  -21.4945   42.6591 C   0  0  0  0  0  0  0  0  0  0  0  0
   31.4370  -22.5497   42.5947 C   0  0  0  0  0  0  0  0  0  0  0  0
   33.5850  -22.0652   43.6231 C   0  0  0  0  0  0  0  0  0  0  0  0
   41.6471  -21.0798   37.2192 O   0  0  0  0  0  0  0  0  0  0  0  0
   42.4202  -20.3954   36.2549 C   0  0  0  0  0  0  0  0  0  0  0  0
   42.2343  -21.1713   34.9436 C   0  0  0  0  0  0  0  0  0  0  0  0
   41.7978  -20.1705   33.9234 C   0  0  0  0  0  0  0  0  0  0  0  0
   40.4517  -19.7110   34.0421 N   0  0  0  0  0  0  0  0  0  0  0  0
   39.4416  -20.6183   33.5946 C   0  0  0  0  0  0  0  0  0  0  0  0
   38.1758  -19.7838   33.8378 C   0  0  0  0  0  0  0  0  0  0  0  0
   38.6607  -18.3831   33.4648 C   0  0  0  0  0  0  0  0  0  0  0  0
   40.1608  -18.5141   33.2959 C   0  0  0  0  0  0  0  0  0  0  0  0
 20 21  1  0  0  0
 21  1  1  0  0  0
  1  2  2  0  0  0
  2  3  1  0  0  0
  3  4  2  0  0  0
  4 22  1  0  0  0
 22 24  1  0  0  0
 24 25  1  0  0  0
 25 26  1  0  0  0
 26 27  1  0  0  0
 27 28  1  0  0  0
 28 29  1  0  0  0
 27 30  1  0  0  0
 30 31  1  0  0  0
 30 32  1  0  0  0
  4  5  1  0  0  0
  5  6  2  0  0  0
  6  7  1  0  0  0
  7  8  2  0  0  0
  8  9  1  0  0  0
  9 10  2  0  0  0
 10 33  1  0  0  0
 33 34  1  0  0  0
 34 35  1  0  0  0
 35 36  1  0  0  0
 36 37  1  0  0  0
 37 38  1  0  0  0
 38 39  1  0  0  0
 39 40  1  0  0  0
 40 41  1  0  0  0
  6 11  1  0  0  0
 11 12  1  0  0  0
 12 13  1  0  0  0
 13 14  1  0  0  0
 13 15  1  0  0  0
 13 16  1  0  0  0
 16 17  1  0  0  0
 16 18  1  0  0  0
 16 19  1  0  0  0
 10  1  1  0  0  0
 41 37  1  0  0  0
 19 11  1  0  0  0
  8  3  1  0  0  0
 29 24  1  0  0  0
 22 23  1  0  0  0
M  END
> <minimizedAffinity>
-5.60883

> <CNNscore>
0.2056739330

> <CNNaffinity>
5.9685554504

> <CNN_VS>
1.2275762558

> <CNNaffinity_variance>
0.1689083874

$$$$
[H]c1c(OC([H])([H])C([H])([H])C([H])([H])N2C([H])([H])C([H])([H])C([H])([H])C2([H])[H])c(OC([H])([H])[H])c([H])c2c(N([H])C3([H])C([H])([H])C([H])([H])N(C([H])(C([H])([H])[H])C([H])([H])[H])C([H])([H])C3([H])[H])nc(N3C([H])([H])C(F)(F)C(F)(F)C3([H])[H])nc12


 41 45  0  0  0  0  0  0  0  0999 V2000
   40.3208  -19.3345   35.8901 C   0  0  0  0  0  0  0  0  0  0  0  0
   39.3725  -18.3938   36.2276 C   0  0  0  0  0  0  0  0  0  0  0  0
   38.0402  -18.6958   36.0123 C   0  0  0  0  0  0  0  0  0  0  0  0
   37.0376  -17.8212   36.3233 C   0  0  0  0  0  0  0  0  0  0  0  0
   35.7519  -18.1765   36.0930 N   0  0  0  0  0  0  0  0  0  0  0  0
   35.4111  -19.3649   35.5657 C   0  0  0  0  0  0  0  0  0  0  0  0
   36.3987  -20.2211   35.2612 N   0  0  0  0  0  0  0  0  0  0  0  0
   37.6912  -19.9176   35.4701 C   0  0  0  0  0  0  0  0  0  0  0  0
   38.6876  -20.8365   35.1448 C   0  0  0  0  0  0  0  0  0  0  0  0
   39.9929  -20.5490   35.3528 C   0  0  0  0  0  0  0  0  0  0  0  0
   34.0501  -19.7249   35.3378 N   0  0  0  0  0  0  0  0  0  0  0  0
   33.2568  -20.6234   36.1836 C   0  0  0  0  0  0  0  0  0  0  0  0
   32.0395  -20.9533   35.3398 C   0  0  0  0  0  0  0  0  0  0  0  0
   30.9599  -21.3546   36.0647 F   0  0  0  0  0  0  0  0  0  0  0  0
   32.3855  -21.8724   34.3771 F   0  0  0  0  0  0  0  0  0  0  0  0
   31.8206  -19.5977   34.6582 C   0  0  0  0  0  0  0  0  0  0  0  0
   30.9493  -19.6655   33.6156 F   0  0  0  0  0  0  0  0  0  0  0  0
   31.4408  -18.6983   35.6414 F   0  0  0  0  0  0  0  0  0  0  0  0
   33.2413  -19.2561   34.2375 C   0  0  0  0  0  0  0  0  0  0  0  0
   42.3220  -19.3727   37.2952 C   0  0  0  0  0  0  0  0  0  0  0  0
   41.6507  -19.0145   36.1127 O   0  0  0  0  0  0  0  0  0  0  0  0
   37.3073  -16.5561   36.8758 N   0  0  0  0  0  0  0  0  0  0  0  0
   38.2535  -16.2426   37.0575 H   0  0  0  0  0  0  0  0  0  0  0  0
   36.2515  -15.6175   37.2220 C   0  0  0  0  0  0  0  0  0  0  0  0
   36.7560  -14.3352   37.7883 C   0  0  0  0  0  0  0  0  0  0  0  0
   35.8147  -13.2077   37.4176 C   0  0  0  0  0  0  0  0  0  0  0  0
   34.4548  -13.6062   37.5292 N   0  0  0  0  0  0  0  0  0  0  0  0
   34.1009  -14.6222   36.5996 C   0  0  0  0  0  0  0  0  0  0  0  0
   35.3335  -15.3332   36.0779 C   0  0  0  0  0  0  0  0  0  0  0  0
   33.5045  -12.5513   37.6684 C   0  0  0  0  0  0  0  0  0  0  0  0
   34.0989  -11.1830   37.3588 C   0  0  0  0  0  0  0  0  0  0  0  0
   32.4295  -12.7751   36.5943 C   0  0  0  0  0  0  0  0  0  0  0  0
   41.0326  -21.4319   35.0470 O   0  0  0  0  0  0  0  0  0  0  0  0
   40.7309  -22.8121   35.0517 C   0  0  0  0  0  0  0  0  0  0  0  0
   41.2320  -23.3442   36.4014 C   0  0  0  0  0  0  0  0  0  0  0  0
   41.0730  -24.8292   36.3509 C   0  0  0  0  0  0  0  0  0  0  0  0
   40.4862  -25.4294   37.5052 N   0  0  0  0  0  0  0  0  0  0  0  0
   39.1104  -25.1183   37.7383 C   0  0  0  0  0  0  0  0  0  0  0  0
   38.8569  -25.8893   39.0418 C   0  0  0  0  0  0  0  0  0  0  0  0
   40.1842  -25.6909   39.7735 C   0  0  0  0  0  0  0  0  0  0  0  0
   41.1120  -25.0673   38.7507 C   0  0  0  0  0  0  0  0  0  0  0  0
 20 21  1  0  0  0
 21  1  1  0  0  0
  1  2  2  0  0  0
  2  3  1  0  0  0
  3  4  2  0  0  0
  4 22  1  0  0  0
 22 24  1  0  0  0
 24 25  1  0  0  0
 25 26  1  0  0  0
 26 27  1  0  0  0
 27 28  1  0  0  0
 28 29  1  0  0  0
 27 30  1  0  0  0
 30 31  1  0  0  0
 30 32  1  0  0  0
  4  5  1  0  0  0
  5  6  2  0  0  0
  6  7  1  0  0  0
  7  8  2  0  0  0
  8  9  1  0  0  0
  9 10  2  0  0  0
 10 33  1  0  0  0
 33 34  1  0  0  0
 34 35  1  0  0  0
 35 36  1  0  0  0
 36 37  1  0  0  0
 37 38  1  0  0  0
 38 39  1  0  0  0
 39 40  1  0  0  0
 40 41  1  0  0  0
  6 11  1  0  0  0
 11 12  1  0  0  0
 12 13  1  0  0  0
 13 14  1  0  0  0
 13 15  1  0  0  0
 13 16  1  0  0  0
 16 17  1  0  0  0
 16 18  1  0  0  0
 16 19  1  0  0  0
 10  1  1  0  0  0
 41 37  1  0  0  0
 19 11  1  0  0  0
  8  3  1  0  0  0
 29 24  1  0  0  0
 22 23  1  0  0  0
M  END
> <minimizedAffinity>
-6.20747

> <CNNscore>
0.1646979600

> <CNNaffinity>
6.3136801720

> <CNN_VS>
1.0398502350

> <CNNaffinity_variance>
0.0995308906

$$$$
[H]c1c(OC([H])([H])C([H])([H])C([H])([H])N2C([H])([H])C([H])([H])C([H])([H])C2([H])[H])c(OC([H])([H])[H])c([H])c2c(N([H])C3([H])C([H])([H])C([H])([H])N(C([H])(C([H])([H])[H])C([H])([H])[H])C([H])([H])C3([H])[H])nc(N3C([H])([H])C(F)(F)C(F)(F)C3([H])[H])nc12


 41 45  0  0  0  0  0  0  0  0999 V2000
   40.3516  -19.4276   36.9515 C   0  0  0  0  0  0  0  0  0  0  0  0
   39.3970  -18.4403   36.8427 C   0  0  0  0  0  0  0  0  0  0  0  0
   38.0814  -18.8162   36.6412 C   0  0  0  0  0  0  0  0  0  0  0  0
   37.0735  -17.9006   36.5273 C   0  0  0  0  0  0  0  0  0  0  0  0
   35.8046  -18.3310   36.3353 N   0  0  0  0  0  0  0  0  0  0  0  0
   35.4857  -19.6340   36.2501 C   0  0  0  0  0  0  0  0  0  0  0  0
   36.4784  -20.5301   36.3621 N   0  0  0  0  0  0  0  0  0  0  0  0
   37.7549  -20.1557   36.5537 C   0  0  0  0  0  0  0  0  0  0  0  0
   38.7569  -21.1177   36.6699 C   0  0  0  0  0  0  0  0  0  0  0  0
   40.0458  -20.7583   36.8675 C   0  0  0  0  0  0  0  0  0  0  0  0
   34.1415  -20.0688   36.0558 N   0  0  0  0  0  0  0  0  0  0  0  0
   33.2793  -20.6497   37.0908 C   0  0  0  0  0  0  0  0  0  0  0  0
   32.1238  -21.2571   36.3171 C   0  0  0  0  0  0  0  0  0  0  0  0
   30.9899  -21.4127   37.0535 F   0  0  0  0  0  0  0  0  0  0  0  0
   32.5300  -22.4371   35.7392 F   0  0  0  0  0  0  0  0  0  0  0  0
   31.9692  -20.2054   35.2124 C   0  0  0  0  0  0  0  0  0  0  0  0
   31.1759  -20.6259   34.1903 F   0  0  0  0  0  0  0  0  0  0  0  0
   31.5275  -19.0377   35.8136 F   0  0  0  0  0  0  0  0  0  0  0  0
   33.4202  -20.0009   34.8068 C   0  0  0  0  0  0  0  0  0  0  0  0
   42.2829  -18.0484   36.3614 C   0  0  0  0  0  0  0  0  0  0  0  0
   41.6646  -19.0323   37.1529 O   0  0  0  0  0  0  0  0  0  0  0  0
   37.3211  -16.5180   36.6021 N   0  0  0  0  0  0  0  0  0  0  0  0
   38.2174  -16.1206   36.3468 H   0  0  0  0  0  0  0  0  0  0  0  0
   36.3121  -15.5704   37.0488 C   0  0  0  0  0  0  0  0  0  0  0  0
   36.8772  -14.2722   37.5123 C   0  0  0  0  0  0  0  0  0  0  0  0
   35.8932  -13.1562   37.2284 C   0  0  0  0  0  0  0  0  0  0  0  0
   34.5588  -13.5519   37.5174 N   0  0  0  0  0  0  0  0  0  0  0  0
   34.0975  -14.5941   36.6674 C   0  0  0  0  0  0  0  0  0  0  0  0
   35.2594  -15.3191   36.0185 C   0  0  0  0  0  0  0  0  0  0  0  0
   33.6287  -12.4938   37.7425 C   0  0  0  0  0  0  0  0  0  0  0  0
   34.1502  -11.1442   37.2651 C   0  0  0  0  0  0  0  0  0  0  0  0
   32.4021  -12.7843   36.8647 C   0  0  0  0  0  0  0  0  0  0  0  0
   41.0901  -21.6792   36.9923 O   0  0  0  0  0  0  0  0  0  0  0  0
   41.2792  -22.5900   35.9290 C   0  0  0  0  0  0  0  0  0  0  0  0
   41.8272  -21.7592   34.7604 C   0  0  0  0  0  0  0  0  0  0  0  0
   41.4674  -22.5014   33.5143 C   0  0  0  0  0  0  0  0  0  0  0  0
   42.5653  -22.9326   32.7107 N   0  0  0  0  0  0  0  0  0  0  0  0
   42.2232  -23.5520   31.4685 C   0  0  0  0  0  0  0  0  0  0  0  0
   43.6169  -23.9001   30.9261 C   0  0  0  0  0  0  0  0  0  0  0  0
   44.3487  -24.3002   32.2070 C   0  0  0  0  0  0  0  0  0  0  0  0
   43.4139  -23.9143   33.3353 C   0  0  0  0  0  0  0  0  0  0  0  0
 20 21  1  0  0  0
 21  1  1  0  0  0
  1  2  2  0  0  0
  2  3  1  0  0  0
  3  4  2  0  0  0
  4 22  1  0  0  0
 22 24  1  0  0  0
 24 25  1  0  0  0
 25 26  1  0  0  0
 26 27  1  0  0  0
 27 28  1  0  0  0
 28 29  1  0  0  0
 27 30  1  0  0  0
 30 31  1  0  0  0
 30 32  1  0  0  0
  4  5  1  0  0  0
  5  6  2  0  0  0
  6  7  1  0  0  0
  7  8  2  0  0  0
  8  9  1  0  0  0
  9 10  2  0  0  0
 10 33  1  0  0  0
 33 34  1  0  0  0
 34 35  1  0  0  0
 35 36  1  0  0  0
 36 37  1  0  0  0
 37 38  1  0  0  0
 38 39  1  0  0  0
 39 40  1  0  0  0
 40 41  1  0  0  0
  6 11  1  0  0  0
 11 12  1  0  0  0
 12 13  1  0  0  0
 13 14  1  0  0  0
 13 15  1  0  0  0
 13 16  1  0  0  0
 16 17  1  0  0  0
 16 18  1  0  0  0
 16 19  1  0  0  0
 10  1  1  0  0  0
 41 37  1  0  0  0
 19 11  1  0  0  0
  8  3  1  0  0  0
 29 24  1  0  0  0
 22 23  1  0  0  0
M  END
> <minimizedAffinity>
-6.76887

> <CNNscore>
0.1591295004

> <CNNaffinity>
5.9605932236

> <CNN_VS>
0.9485062361

> <CNNaffinity_variance>
0.3785893321

$$$$
[H]c1c(C2([H])C([H])([H])C([H])([H])C([H])([H])C([H])([H])C2([H])[H])nc2c([H])c(OC([H])([H])C([H])([H])C([H])([H])N3C([H])([H])C([H])([H])C([H])([H])C3([H])[H])c(OC([H])([H])[H])c([H])c2c1N([H])C1([H])C([H])([H])C([H])([H])N(C([H])(C([H])([H])[H])C([H])([H])[H])C([H])([H])C1([H])[H]


 38 42  0  0  0  0  0  0  0  0999 V2000
   36.0877  -13.8140   36.7031 C   0  0  0  0  0  0  0  0  0  0  0  0
   36.5256  -15.0782   36.3217 C   0  0  0  0  0  0  0  0  0  0  0  0
   35.6604  -16.0729   35.9283 C   0  0  0  0  0  0  0  0  0  0  0  0
   36.1047  -17.3132   35.5503 C   0  0  0  0  0  0  0  0  0  0  0  0
   35.1760  -18.2575   35.1630 C   0  0  0  0  0  0  0  0  0  0  0  0
   33.8081  -17.9461   35.1591 C   0  0  0  0  0  0  0  0  0  0  0  0
   33.4502  -16.7277   35.5370 N   0  0  0  0  0  0  0  0  0  0  0  0
   34.2942  -15.7692   35.9225 C   0  0  0  0  0  0  0  0  0  0  0  0
   33.8494  -14.5235   36.2971 C   0  0  0  0  0  0  0  0  0  0  0  0
   34.7151  -13.5309   36.6905 C   0  0  0  0  0  0  0  0  0  0  0  0
   32.8802  -18.9999   34.7323 C   0  0  0  0  0  0  0  0  0  0  0  0
   31.5271  -18.8721   35.4396 C   0  0  0  0  0  0  0  0  0  0  0  0
   30.5648  -19.7737   34.7280 C   0  0  0  0  0  0  0  0  0  0  0  0
   31.0190  -21.2063   34.6988 C   0  0  0  0  0  0  0  0  0  0  0  0
   32.4564  -21.3724   34.3328 C   0  0  0  0  0  0  0  0  0  0  0  0
   33.3771  -20.3955   35.0326 C   0  0  0  0  0  0  0  0  0  0  0  0
   38.2861  -13.1988   37.5349 C   0  0  0  0  0  0  0  0  0  0  0  0
   36.9999  -12.8716   37.0825 O   0  0  0  0  0  0  0  0  0  0  0  0
   37.4666  -17.6682   35.5574 N   0  0  0  0  0  0  0  0  0  0  0  0
   38.1738  -16.9481   35.8056 H   0  0  0  0  0  0  0  0  0  0  0  0
   37.9159  -19.0239   35.2295 C   0  0  0  0  0  0  0  0  0  0  0  0
   39.1371  -19.3207   36.0681 C   0  0  0  0  0  0  0  0  0  0  0  0
   39.9232  -20.4146   35.4271 C   0  0  0  0  0  0  0  0  0  0  0  0
   40.5631  -19.9501   34.2361 N   0  0  0  0  0  0  0  0  0  0  0  0
   39.8526  -18.8457   33.6188 C   0  0  0  0  0  0  0  0  0  0  0  0
   38.3617  -19.0953   33.7808 C   0  0  0  0  0  0  0  0  0  0  0  0
   41.9500  -19.6825   34.4209 C   0  0  0  0  0  0  0  0  0  0  0  0
   42.5624  -20.2477   35.6601 C   0  0  0  0  0  0  0  0  0  0  0  0
   42.2039  -18.1814   34.4510 C   0  0  0  0  0  0  0  0  0  0  0  0
   34.3538  -12.2990   37.0697 O   0  0  0  0  0  0  0  0  0  0  0  0
   33.5193  -11.7715   38.0162 C   0  0  0  0  0  0  0  0  0  0  0  0
   32.2125  -12.4826   38.2117 C   0  0  0  0  0  0  0  0  0  0  0  0
   31.1583  -11.6749   37.4464 C   0  0  0  0  0  0  0  0  0  0  0  0
   29.8181  -12.0604   37.7838 N   0  0  0  0  0  0  0  0  0  0  0  0
   28.8403  -11.0372   37.5912 C   0  0  0  0  0  0  0  0  0  0  0  0
   28.8520  -10.3396   38.9569 C   0  0  0  0  0  0  0  0  0  0  0  0
   28.8247  -11.5669   39.8736 C   0  0  0  0  0  0  0  0  0  0  0  0
   29.7967  -12.4707   39.1539 C   0  0  0  0  0  0  0  0  0  0  0  0
 17 18  1  0  0  0
 18  1  1  0  0  0
  1  2  2  0  0  0
  2  3  1  0  0  0
  3  4  2  0  0  0
  4 19  1  0  0  0
 19 21  1  0  0  0
 21 22  1  0  0  0
 22 23  1  0  0  0
 23 24  1  0  0  0
 24 25  1  0  0  0
 25 26  1  0  0  0
 24 27  1  0  0  0
 27 28  1  0  0  0
 27 29  1  0  0  0
  4  5  1  0  0  0
  5  6  2  0  0  0
  6  7  1  0  0  0
  7  8  2  0  0  0
  8  9  1  0  0  0
  9 10  2  0  0  0
 10 30  1  0  0  0
 30 31  1  0  0  0
 31 32  1  0  0  0
 32 33  1  0  0  0
 33 34  1  0  0  0
 34 35  1  0  0  0
 35 36  1  0  0  0
 36 37  1  0  0  0
 37 38  1  0  0  0
  6 11  1  0  0  0
 11 12  1  0  0  0
 12 13  1  0  0  0
 13 14  1  0  0  0
 14 15  1  0  0  0
 15 16  1  0  0  0
 10  1  1  0  0  0
 38 34  1  0  0  0
 16 11  1  0  0  0
  8  3  1  0  0  0
 26 21  1  0  0  0
 19 20  1  0  0  0
M  END
> <minimizedAffinity>
-8.76907

> <CNNscore>
0.8619815707

> <CNNaffinity>
7.6090683937

> <CNN_VS>
6.5588765144

> <CNNaffinity_variance>
0.0340663455

$$$$
[H]c1c(C2([H])C([H])([H])C([H])([H])C([H])([H])C([H])([H])C2([H])[H])nc2c([H])c(OC([H])([H])C([H])([H])C([H])([H])N3C([H])([H])C([H])([H])C([H])([H])C3([H])[H])c(OC([H])([H])[H])c([H])c2c1N([H])C1([H])C([H])([H])C([H])([H])N(C([H])(C([H])([H])[H])C([H])([H])[H])C([H])([H])C1([H])[H]


 38 42  0  0  0  0  0  0  0  0999 V2000
   36.0391  -13.8752   36.6889 C   0  0  0  0  0  0  0  0  0  0  0  0
   36.4706  -15.1367   36.2915 C   0  0  0  0  0  0  0  0  0  0  0  0
   35.5992  -16.1280   35.9034 C   0  0  0  0  0  0  0  0  0  0  0  0
   36.0372  -17.3656   35.5094 C   0  0  0  0  0  0  0  0  0  0  0  0
   35.1023  -18.3064   35.1288 C   0  0  0  0  0  0  0  0  0  0  0  0
   33.7347  -17.9945   35.1478 C   0  0  0  0  0  0  0  0  0  0  0  0
   33.3831  -16.7789   35.5402 N   0  0  0  0  0  0  0  0  0  0  0  0
   34.2332  -15.8236   35.9203 C   0  0  0  0  0  0  0  0  0  0  0  0
   33.7947  -14.5807   36.3111 C   0  0  0  0  0  0  0  0  0  0  0  0
   34.6667  -13.5915   36.6990 C   0  0  0  0  0  0  0  0  0  0  0  0
   32.7999  -19.0446   34.7268 C   0  0  0  0  0  0  0  0  0  0  0  0
   31.4493  -18.9071   35.4371 C   0  0  0  0  0  0  0  0  0  0  0  0
   30.4803  -19.8057   34.7310 C   0  0  0  0  0  0  0  0  0  0  0  0
   30.9266  -21.2409   34.7054 C   0  0  0  0  0  0  0  0  0  0  0  0
   32.3621  -21.4161   34.3363 C   0  0  0  0  0  0  0  0  0  0  0  0
   33.2899  -20.4420   35.0306 C   0  0  0  0  0  0  0  0  0  0  0  0
   38.2287  -13.2694   37.5504 C   0  0  0  0  0  0  0  0  0  0  0  0
   36.9574  -12.9361   37.0619 O   0  0  0  0  0  0  0  0  0  0  0  0
   37.3988  -17.7211   35.4935 N   0  0  0  0  0  0  0  0  0  0  0  0
   37.9715  -17.4858   34.6587 H   0  0  0  0  0  0  0  0  0  0  0  0
   38.0333  -18.4093   36.6210 C   0  0  0  0  0  0  0  0  0  0  0  0
   39.3636  -18.9446   36.1452 C   0  0  0  0  0  0  0  0  0  0  0  0
   39.7950  -20.0604   37.0364 C   0  0  0  0  0  0  0  0  0  0  0  0
   38.9862  -21.2204   36.8263 N   0  0  0  0  0  0  0  0  0  0  0  0
   37.6582  -20.8911   36.3431 C   0  0  0  0  0  0  0  0  0  0  0  0
   37.2085  -19.6140   37.0346 C   0  0  0  0  0  0  0  0  0  0  0  0
   39.6341  -22.2112   36.0340 C   0  0  0  0  0  0  0  0  0  0  0  0
   39.1950  -22.2945   34.6090 C   0  0  0  0  0  0  0  0  0  0  0  0
   39.4301  -23.5940   36.6378 C   0  0  0  0  0  0  0  0  0  0  0  0
   34.3117  -12.3623   37.0929 O   0  0  0  0  0  0  0  0  0  0  0  0
   33.3943  -11.8400   37.9623 C   0  0  0  0  0  0  0  0  0  0  0  0
   32.0261  -11.5853   37.4012 C   0  0  0  0  0  0  0  0  0  0  0  0
   31.0357  -12.3023   38.3255 C   0  0  0  0  0  0  0  0  0  0  0  0
   29.6706  -12.0983   37.9335 N   0  0  0  0  0  0  0  0  0  0  0  0
   29.3549  -10.7563   37.5606 C   0  0  0  0  0  0  0  0  0  0  0  0
   28.9292  -10.1552   38.9057 C   0  0  0  0  0  0  0  0  0  0  0  0
   28.0163  -11.2767   39.4119 C   0  0  0  0  0  0  0  0  0  0  0  0
   28.8249  -12.4896   39.0187 C   0  0  0  0  0  0  0  0  0  0  0  0
 17 18  1  0  0  0
 18  1  1  0  0  0
  1  2  2  0  0  0
  2  3  1  0  0  0
  3  4  2  0  0  0
  4 19  1  0  0  0
 19 21  1  0  0  0
 21 22  1  0  0  0
 22 23  1  0  0  0
 23 24  1  0  0  0
 24 25  1  0  0  0
 25 26  1  0  0  0
 24 27  1  0  0  0
 27 28  1  0  0  0
 27 29  1  0  0  0
  4  5  1  0  0  0
  5  6  2  0  0  0
  6  7  1  0  0  0
  7  8  2  0  0  0
  8  9  1  0  0  0
  9 10  2  0  0  0
 10 30  1  0  0  0
 30 31  1  0  0  0
 31 32  1  0  0  0
 32 33  1  0  0  0
 33 34  1  0  0  0
 34 35  1  0  0  0
 35 36  1  0  0  0
 36 37  1  0  0  0
 37 38  1  0  0  0
  6 11  1  0  0  0
 11 12  1  0  0  0
 12 13  1  0  0  0
 13 14  1  0  0  0
 14 15  1  0  0  0
 15 16  1  0  0  0
 10  1  1  0  0  0
 38 34  1  0  0  0
 16 11  1  0  0  0
  8  3  1  0  0  0
 26 21  1  0  0  0
 19 20  1  0  0  0
M  END
> <minimizedAffinity>
-8.18297

> <CNNscore>
0.7967710495

> <CNNaffinity>
7.4815278053

> <CNN_VS>
5.9610648155

> <CNNaffinity_variance>
0.0732464567

$$$$
[H]c1c(C2([H])C([H])([H])C([H])([H])C([H])([H])C([H])([H])C2([H])[H])nc2c([H])c(OC([H])([H])C([H])([H])C([H])([H])N3C([H])([H])C([H])([H])C([H])([H])C3([H])[H])c(OC([H])([H])[H])c([H])c2c1N([H])C1([H])C([H])([H])C([H])([H])N(C([H])(C([H])([H])[H])C([H])([H])[H])C([H])([H])C1([H])[H]


 38 42  0  0  0  0  0  0  0  0999 V2000
   36.2853  -14.2611   36.6354 C   0  0  0  0  0  0  0  0  0  0  0  0
   36.6492  -15.4357   35.9846 C   0  0  0  0  0  0  0  0  0  0  0  0
   35.7365  -16.4095   35.6511 C   0  0  0  0  0  0  0  0  0  0  0  0
   36.1069  -17.5605   35.0056 C   0  0  0  0  0  0  0  0  0  0  0  0
   35.1326  -18.4885   34.6995 C   0  0  0  0  0  0  0  0  0  0  0  0
   33.7940  -18.2510   35.0452 C   0  0  0  0  0  0  0  0  0  0  0  0
   33.5081  -17.1171   35.6681 N   0  0  0  0  0  0  0  0  0  0  0  0
   34.3991  -16.1791   35.9934 C   0  0  0  0  0  0  0  0  0  0  0  0
   34.0273  -15.0223   36.6366 C   0  0  0  0  0  0  0  0  0  0  0  0
   34.9407  -14.0506   36.9696 C   0  0  0  0  0  0  0  0  0  0  0  0
   32.8136  -19.2818   34.6847 C   0  0  0  0  0  0  0  0  0  0  0  0
   31.4885  -19.0752   35.4256 C   0  0  0  0  0  0  0  0  0  0  0  0
   30.4711  -19.9630   34.7760 C   0  0  0  0  0  0  0  0  0  0  0  0
   30.8687  -21.4126   34.7868 C   0  0  0  0  0  0  0  0  0  0  0  0
   32.2868  -21.6486   34.3858 C   0  0  0  0  0  0  0  0  0  0  0  0
   33.2653  -20.6844   35.0220 C   0  0  0  0  0  0  0  0  0  0  0  0
   38.3440  -13.6204   37.7554 C   0  0  0  0  0  0  0  0  0  0  0  0
   37.2418  -13.3347   36.9373 O   0  0  0  0  0  0  0  0  0  0  0  0
   37.4413  -17.8419   34.6579 N   0  0  0  0  0  0  0  0  0  0  0  0
   37.9952  -17.1186   34.1577 H   0  0  0  0  0  0  0  0  0  0  0  0
   38.0735  -19.1230   34.9844 C   0  0  0  0  0  0  0  0  0  0  0  0
   39.0697  -18.8764   36.0932 C   0  0  0  0  0  0  0  0  0  0  0  0
   40.0819  -19.9723   36.1014 C   0  0  0  0  0  0  0  0  0  0  0  0
   40.9543  -19.8668   34.9738 N   0  0  0  0  0  0  0  0  0  0  0  0
   40.3261  -19.2044   33.8459 C   0  0  0  0  0  0  0  0  0  0  0  0
   38.8691  -19.6355   33.7982 C   0  0  0  0  0  0  0  0  0  0  0  0
   42.2236  -19.3116   35.3057 C   0  0  0  0  0  0  0  0  0  0  0  0
   42.7461  -18.2749   34.3664 C   0  0  0  0  0  0  0  0  0  0  0  0
   43.2799  -20.4055   35.3840 C   0  0  0  0  0  0  0  0  0  0  0  0
   34.6515  -12.9037   37.5965 O   0  0  0  0  0  0  0  0  0  0  0  0
   33.9077  -11.7923   37.3101 C   0  0  0  0  0  0  0  0  0  0  0  0
   32.5061  -11.7819   37.8461 C   0  0  0  0  0  0  0  0  0  0  0  0
   31.8091  -10.5692   37.2192 C   0  0  0  0  0  0  0  0  0  0  0  0
   32.3887   -9.3249   37.6366 N   0  0  0  0  0  0  0  0  0  0  0  0
   31.6819   -8.1642   37.1972 C   0  0  0  0  0  0  0  0  0  0  0  0
   32.3572   -7.8848   35.8490 C   0  0  0  0  0  0  0  0  0  0  0  0
   33.8249   -8.0474   36.2572 C   0  0  0  0  0  0  0  0  0  0  0  0
   33.7311   -9.2640   37.1463 C   0  0  0  0  0  0  0  0  0  0  0  0
 17 18  1  0  0  0
 18  1  1  0  0  0
  1  2  2  0  0  0
  2  3  1  0  0  0
  3  4  2  0  0  0
  4 19  1  0  0  0
 19 21  1  0  0  0
 21 22  1  0  0  0
 22 23  1  0  0  0
 23 24  1  0  0  0
 24 25  1  0  0  0
 25 26  1  0  0  0
 24 27  1  0  0  0
 27 28  1  0  0  0
 27 29  1  0  0  0
  4  5  1  0  0  0
  5  6  2  0  0  0
  6  7  1  0  0  0
  7  8  2  0  0  0
  8  9  1  0  0  0
  9 10  2  0  0  0
 10 30  1  0  0  0
 30 31  1  0  0  0
 31 32  1  0  0  0
 32 33  1  0  0  0
 33 34  1  0  0  0
 34 35  1  0  0  0
 35 36  1  0  0  0
 36 37  1  0  0  0
 37 38  1  0  0  0
  6 11  1  0  0  0
 11 12  1  0  0  0
 12 13  1  0  0  0
 13 14  1  0  0  0
 14 15  1  0  0  0
 15 16  1  0  0  0
 10  1  1  0  0  0
 38 34  1  0  0  0
 16 11  1  0  0  0
  8  3  1  0  0  0
 26 21  1  0  0  0
 19 20  1  0  0  0
M  END
> <minimizedAffinity>
-7.73092

> <CNNscore>
0.7907056808

> <CNNaffinity>
7.6885194778

> <CNN_VS>
6.0793561935

> <CNNaffinity_variance>
0.0153018804

$$$$
[H]c1c(C2([H])C([H])([H])C([H])([H])C([H])([H])C([H])([H])C2([H])[H])nc2c([H])c(OC([H])([H])C([H])([H])C([H])([H])N3C([H])([H])C([H])([H])C([H])([H])C3([H])[H])c(OC([H])([H])[H])c([H])c2c1N([H])C1([H])C([H])([H])C([H])([H])N(C([H])(C([H])([H])[H])C([H])([H])[H])C([H])([H])C1([H])[H]


 38 42  0  0  0  0  0  0  0  0999 V2000
   36.1698  -14.0679   36.6395 C   0  0  0  0  0  0  0  0  0  0  0  0
   36.5546  -15.2469   36.0090 C   0  0  0  0  0  0  0  0  0  0  0  0
   35.6549  -16.2292   35.6652 C   0  0  0  0  0  0  0  0  0  0  0  0
   36.0460  -17.3846   35.0399 C   0  0  0  0  0  0  0  0  0  0  0  0
   35.0840  -18.3212   34.7217 C   0  0  0  0  0  0  0  0  0  0  0  0
   33.7366  -18.0878   35.0349 C   0  0  0  0  0  0  0  0  0  0  0  0
   33.4306  -16.9494   35.6396 N   0  0  0  0  0  0  0  0  0  0  0  0
   34.3090  -16.0030   35.9751 C   0  0  0  0  0  0  0  0  0  0  0  0
   33.9165  -14.8420   36.5980 C   0  0  0  0  0  0  0  0  0  0  0  0
   34.8168  -13.8617   36.9414 C   0  0  0  0  0  0  0  0  0  0  0  0
   32.7703  -19.1278   34.6631 C   0  0  0  0  0  0  0  0  0  0  0  0
   31.4503  -18.9604   35.4227 C   0  0  0  0  0  0  0  0  0  0  0  0
   30.4411  -19.8518   34.7655 C   0  0  0  0  0  0  0  0  0  0  0  0
   30.8638  -21.2942   34.7407 C   0  0  0  0  0  0  0  0  0  0  0  0
   32.2812  -21.4966   34.3192 C   0  0  0  0  0  0  0  0  0  0  0  0
   33.2500  -20.5291   34.9653 C   0  0  0  0  0  0  0  0  0  0  0  0
   38.2589  -13.4329   37.7054 C   0  0  0  0  0  0  0  0  0  0  0  0
   37.1141  -13.1330   36.9533 O   0  0  0  0  0  0  0  0  0  0  0  0
   37.3894  -17.6619   34.7251 N   0  0  0  0  0  0  0  0  0  0  0  0
   37.8255  -17.1840   33.9116 H   0  0  0  0  0  0  0  0  0  0  0  0
   38.1921  -18.6010   35.5131 C   0  0  0  0  0  0  0  0  0  0  0  0
   37.8416  -19.9995   35.0614 C   0  0  0  0  0  0  0  0  0  0  0  0
   38.2002  -20.9706   36.1355 C   0  0  0  0  0  0  0  0  0  0  0  0
   37.3084  -20.8520   37.2465 N   0  0  0  0  0  0  0  0  0  0  0  0
   36.7399  -19.5220   37.3625 C   0  0  0  0  0  0  0  0  0  0  0  0
   37.8135  -18.5158   36.9801 C   0  0  0  0  0  0  0  0  0  0  0  0
   36.3231  -21.8803   37.2780 C   0  0  0  0  0  0  0  0  0  0  0  0
   35.0856  -21.5723   38.0550 C   0  0  0  0  0  0  0  0  0  0  0  0
   36.9048  -23.1582   37.8671 C   0  0  0  0  0  0  0  0  0  0  0  0
   34.5074  -12.7102   37.5500 O   0  0  0  0  0  0  0  0  0  0  0  0
   33.4053  -11.9030   37.6151 C   0  0  0  0  0  0  0  0  0  0  0  0
   32.2682  -12.4077   38.4541 C   0  0  0  0  0  0  0  0  0  0  0  0
   30.9822  -12.0817   37.6863 C   0  0  0  0  0  0  0  0  0  0  0  0
   30.0278  -11.3713   38.4883 N   0  0  0  0  0  0  0  0  0  0  0  0
   29.4878  -12.1251   39.5746 C   0  0  0  0  0  0  0  0  0  0  0  0
   28.2653  -12.7782   38.9182 C   0  0  0  0  0  0  0  0  0  0  0  0
   27.6901  -11.5651   38.1801 C   0  0  0  0  0  0  0  0  0  0  0  0
   28.9564  -10.9426   37.6431 C   0  0  0  0  0  0  0  0  0  0  0  0
 17 18  1  0  0  0
 18  1  1  0  0  0
  1  2  2  0  0  0
  2  3  1  0  0  0
  3  4  2  0  0  0
  4 19  1  0  0  0
 19 21  1  0  0  0
 21 22  1  0  0  0
 22 23  1  0  0  0
 23 24  1  0  0  0
 24 25  1  0  0  0
 25 26  1  0  0  0
 24 27  1  0  0  0
 27 28  1  0  0  0
 27 29  1  0  0  0
  4  5  1  0  0  0
  5  6  2  0  0  0
  6  7  1  0  0  0
  7  8  2  0  0  0
  8  9  1  0  0  0
  9 10  2  0  0  0
 10 30  1  0  0  0
 30 31  1  0  0  0
 31 32  1  0  0  0
 32 33  1  0  0  0
 33 34  1  0  0  0
 34 35  1  0  0  0
 35 36  1  0  0  0
 36 37  1  0  0  0
 37 38  1  0  0  0
  6 11  1  0  0  0
 11 12  1  0  0  0
 12 13  1  0  0  0
 13 14  1  0  0  0
 14 15  1  0  0  0
 15 16  1  0  0  0
 10  1  1  0  0  0
 38 34  1  0  0  0
 16 11  1  0  0  0
  8  3  1  0  0  0
 26 21  1  0  0  0
 19 20  1  0  0  0
M  END
> <minimizedAffinity>
-7.91704

> <CNNscore>
0.7600220442

> <CNNaffinity>
7.5042037964

> <CNN_VS>
5.7033600807

> <CNNaffinity_variance>
0.0479550287

$$$$
[H]c1c(C2([H])C([H])([H])C([H])([H])C([H])([H])C([H])([H])C2([H])[H])nc2c([H])c(OC([H])([H])C([H])([H])C([H])([H])N3C([H])([H])C([H])([H])C([H])([H])C3([H])[H])c(OC([H])([H])[H])c([H])c2c1N([H])C1([H])C([H])([H])C([H])([H])N(C([H])(C([H])([H])[H])C([H])([H])[H])C([H])([H])C1([H])[H]


 38 42  0  0  0  0  0  0  0  0999 V2000
   35.9275  -14.3856   36.4878 C   0  0  0  0  0  0  0  0  0  0  0  0
   36.4900  -15.5390   35.9503 C   0  0  0  0  0  0  0  0  0  0  0  0
   35.7533  -16.6734   35.6996 C   0  0  0  0  0  0  0  0  0  0  0  0
   36.3183  -17.8021   35.1653 C   0  0  0  0  0  0  0  0  0  0  0  0
   35.5129  -18.8990   34.9372 C   0  0  0  0  0  0  0  0  0  0  0  0
   34.1458  -18.8515   35.2483 C   0  0  0  0  0  0  0  0  0  0  0  0
   33.6674  -17.7280   35.7624 N   0  0  0  0  0  0  0  0  0  0  0  0
   34.3887  -16.6329   36.0080 C   0  0  0  0  0  0  0  0  0  0  0  0
   33.8214  -15.4990   36.5394 C   0  0  0  0  0  0  0  0  0  0  0  0
   34.5591  -14.3665   36.7899 C   0  0  0  0  0  0  0  0  0  0  0  0
   33.3521  -20.0553   34.9753 C   0  0  0  0  0  0  0  0  0  0  0  0
   31.8641  -19.7212   34.8288 C   0  0  0  0  0  0  0  0  0  0  0  0
   31.1900  -20.9298   34.2541 C   0  0  0  0  0  0  0  0  0  0  0  0
   31.3807  -22.1607   35.0955 C   0  0  0  0  0  0  0  0  0  0  0  0
   32.7858  -22.3592   35.5580 C   0  0  0  0  0  0  0  0  0  0  0  0
   33.4401  -21.0937   36.0703 C   0  0  0  0  0  0  0  0  0  0  0  0
   37.9205  -13.3603   37.4260 C   0  0  0  0  0  0  0  0  0  0  0  0
   36.7157  -13.2934   36.7118 O   0  0  0  0  0  0  0  0  0  0  0  0
   37.6883  -17.8936   34.8562 N   0  0  0  0  0  0  0  0  0  0  0  0
   38.0329  -17.4821   33.9662 H   0  0  0  0  0  0  0  0  0  0  0  0
   38.6433  -18.5483   35.7545 C   0  0  0  0  0  0  0  0  0  0  0  0
   39.3733  -19.6060   34.9600 C   0  0  0  0  0  0  0  0  0  0  0  0
   39.9424  -20.6209   35.8936 C   0  0  0  0  0  0  0  0  0  0  0  0
   38.9067  -21.4264   36.4614 N   0  0  0  0  0  0  0  0  0  0  0  0
   37.6343  -20.7317   36.5237 C   0  0  0  0  0  0  0  0  0  0  0  0
   37.9086  -19.2759   36.8651 C   0  0  0  0  0  0  0  0  0  0  0  0
   38.8075  -22.7106   35.8530 C   0  0  0  0  0  0  0  0  0  0  0  0
   37.7409  -23.6058   36.3926 C   0  0  0  0  0  0  0  0  0  0  0  0
   40.1230  -23.4660   35.9849 C   0  0  0  0  0  0  0  0  0  0  0  0
   34.0753  -13.2304   37.3068 O   0  0  0  0  0  0  0  0  0  0  0  0
   33.2800  -12.8992   38.3690 C   0  0  0  0  0  0  0  0  0  0  0  0
   32.1435  -11.9646   38.0743 C   0  0  0  0  0  0  0  0  0  0  0  0
   32.6512  -10.9824   37.0128 C   0  0  0  0  0  0  0  0  0  0  0  0
   32.9808   -9.6991   37.5635 N   0  0  0  0  0  0  0  0  0  0  0  0
   31.9953   -8.6889   37.3446 C   0  0  0  0  0  0  0  0  0  0  0  0
   32.4547   -8.0955   36.0072 C   0  0  0  0  0  0  0  0  0  0  0  0
   33.9553   -7.9625   36.2860 C   0  0  0  0  0  0  0  0  0  0  0  0
   34.2210   -9.2682   36.9959 C   0  0  0  0  0  0  0  0  0  0  0  0
 17 18  1  0  0  0
 18  1  1  0  0  0
  1  2  2  0  0  0
  2  3  1  0  0  0
  3  4  2  0  0  0
  4 19  1  0  0  0
 19 21  1  0  0  0
 21 22  1  0  0  0
 22 23  1  0  0  0
 23 24  1  0  0  0
 24 25  1  0  0  0
 25 26  1  0  0  0
 24 27  1  0  0  0
 27 28  1  0  0  0
 27 29  1  0  0  0
  4  5  1  0  0  0
  5  6  2  0  0  0
  6  7  1  0  0  0
  7  8  2  0  0  0
  8  9  1  0  0  0
  9 10  2  0  0  0
 10 30  1  0  0  0
 30 31  1  0  0  0
 31 32  1  0  0  0
 32 33  1  0  0  0
 33 34  1  0  0  0
 34 35  1  0  0  0
 35 36  1  0  0  0
 36 37  1  0  0  0
 37 38  1  0  0  0
  6 11  1  0  0  0
 11 12  1  0  0  0
 12 13  1  0  0  0
 13 14  1  0  0  0
 14 15  1  0  0  0
 15 16  1  0  0  0
 10  1  1  0  0  0
 38 34  1  0  0  0
 16 11  1  0  0  0
  8  3  1  0  0  0
 26 21  1  0  0  0
 19 20  1  0  0  0
M  END
> <minimizedAffinity>
-6.59107

> <CNNscore>
0.5713940859

> <CNNaffinity>
7.3294687271

> <CNN_VS>
4.1880149841

> <CNNaffinity_variance>
0.0053150551

$$$$
[H]c1c(C2([H])C([H])([H])C([H])([H])C([H])([H])C([H])([H])C2([H])[H])nc2c([H])c(OC([H])([H])C([H])([H])C([H])([H])N3C([H])([H])C([H])([H])C([H])([H])C3([H])[H])c(OC([H])([H])[H])c([H])c2c1N([H])C1([H])C([H])([H])C([H])([H])N(C([H])(C([H])([H])[H])C([H])([H])[H])C([H])([H])C1([H])[H]


 38 42  0  0  0  0  0  0  0  0999 V2000
   34.5065  -21.5464   39.5128 C   0  0  0  0  0  0  0  0  0  0  0  0
   35.7652  -21.9883   39.9077 C   0  0  0  0  0  0  0  0  0  0  0  0
   36.8227  -22.0854   39.0332 C   0  0  0  0  0  0  0  0  0  0  0  0
   38.0596  -22.5179   39.4356 C   0  0  0  0  0  0  0  0  0  0  0  0
   39.0725  -22.5833   38.5008 C   0  0  0  0  0  0  0  0  0  0  0  0
   38.8329  -22.2130   37.1691 C   0  0  0  0  0  0  0  0  0  0  0  0
   37.6133  -21.8047   36.8507 N   0  0  0  0  0  0  0  0  0  0  0  0
   36.5905  -21.7179   37.7028 C   0  0  0  0  0  0  0  0  0  0  0  0
   35.3511  -21.2796   37.3006 C   0  0  0  0  0  0  0  0  0  0  0  0
   34.2953  -21.1837   38.1756 C   0  0  0  0  0  0  0  0  0  0  0  0
   39.9589  -22.3059   36.2326 C   0  0  0  0  0  0  0  0  0  0  0  0
   40.7990  -21.0246   36.2410 C   0  0  0  0  0  0  0  0  0  0  0  0
   42.0726  -21.3213   35.5096 C   0  0  0  0  0  0  0  0  0  0  0  0
   41.8411  -21.7989   34.1032 C   0  0  0  0  0  0  0  0  0  0  0  0
   40.7710  -22.8331   33.9896 C   0  0  0  0  0  0  0  0  0  0  0  0
   39.5312  -22.5142   34.7978 C   0  0  0  0  0  0  0  0  0  0  0  0
   33.3636  -22.3907   41.4836 C   0  0  0  0  0  0  0  0  0  0  0  0
   33.4997  -21.4732   40.4321 O   0  0  0  0  0  0  0  0  0  0  0  0
   38.3338  -22.9140   40.7579 N   0  0  0  0  0  0  0  0  0  0  0  0
   38.4086  -23.9276   40.9753 H   0  0  0  0  0  0  0  0  0  0  0  0
   38.5211  -21.9391   41.8359 C   0  0  0  0  0  0  0  0  0  0  0  0
   39.4115  -20.8370   41.3116 C   0  0  0  0  0  0  0  0  0  0  0  0
   40.0502  -20.1292   42.4590 C   0  0  0  0  0  0  0  0  0  0  0  0
   41.0387  -20.9552   43.0791 N   0  0  0  0  0  0  0  0  0  0  0  0
   40.7661  -22.3702   42.9088 C   0  0  0  0  0  0  0  0  0  0  0  0
   39.2622  -22.5742   42.9978 C   0  0  0  0  0  0  0  0  0  0  0  0
   42.3681  -20.5989   42.7112 C   0  0  0  0  0  0  0  0  0  0  0  0
   43.4343  -20.9627   43.6914 C   0  0  0  0  0  0  0  0  0  0  0  0
   42.4741  -19.0970   42.4843 C   0  0  0  0  0  0  0  0  0  0  0  0
   33.0638  -20.7687   37.8546 O   0  0  0  0  0  0  0  0  0  0  0  0
   32.2372  -20.9011   36.7731 C   0  0  0  0  0  0  0  0  0  0  0  0
   31.0411  -21.7871   36.9631 C   0  0  0  0  0  0  0  0  0  0  0  0
   30.7114  -22.3750   35.5864 C   0  0  0  0  0  0  0  0  0  0  0  0
   29.5750  -23.2502   35.6199 N   0  0  0  0  0  0  0  0  0  0  0  0
   28.3125  -22.5859   35.5521 C   0  0  0  0  0  0  0  0  0  0  0  0
   28.0131  -22.3420   37.0363 C   0  0  0  0  0  0  0  0  0  0  0  0
   28.3707  -23.7204   37.6013 C   0  0  0  0  0  0  0  0  0  0  0  0
   29.6309  -24.0186   36.8250 C   0  0  0  0  0  0  0  0  0  0  0  0
 17 18  1  0  0  0
 18  1  1  0  0  0
  1  2  2  0  0  0
  2  3  1  0  0  0
  3  4  2  0  0  0
  4 19  1  0  0  0
 19 21  1  0  0  0
 21 22  1  0  0  0
 22 23  1  0  0  0
 23 24  1  0  0  0
 24 25  1  0  0  0
 25 26  1  0  0  0
 24 27  1  0  0  0
 27 28  1  0  0  0
 27 29  1  0  0  0
  4  5  1  0  0  0
  5  6  2  0  0  0
  6  7  1  0  0  0
  7  8  2  0  0  0
  8  9  1  0  0  0
  9 10  2  0  0  0
 10 30  1  0  0  0
 30 31  1  0  0  0
 31 32  1  0  0  0
 32 33  1  0  0  0
 33 34  1  0  0  0
 34 35  1  0  0  0
 35 36  1  0  0  0
 36 37  1  0  0  0
 37 38  1  0  0  0
  6 11  1  0  0  0
 11 12  1  0  0  0
 12 13  1  0  0  0
 13 14  1  0  0  0
 14 15  1  0  0  0
 15 16  1  0  0  0
 10  1  1  0  0  0
 38 34  1  0  0  0
 16 11  1  0  0  0
  8  3  1  0  0  0
 26 21  1  0  0  0
 19 20  1  0  0  0
M  END
> <minimizedAffinity>
-3.71204

> <CNNscore>
0.4784708619

> <CNNaffinity>
5.9146409035

> <CNN_VS>
2.8299832344

> <CNNaffinity_variance>
0.2673347592

$$$$
[H]c1c(C2([H])C([H])([H])C([H])([H])C([H])([H])C([H])([H])C2([H])[H])nc2c([H])c(OC([H])([H])C([H])([H])C([H])([H])N3C([H])([H])C([H])([H])C([H])([H])C3([H])[H])c(OC([H])([H])[H])c([H])c2c1N([H])C1([H])C([H])([H])C([H])([H])N(C([H])(C([H])([H])[H])C([H])([H])[H])C([H])([H])C1([H])[H]


 38 42  0  0  0  0  0  0  0  0999 V2000
   37.2233  -22.3974   39.5836 C   0  0  0  0  0  0  0  0  0  0  0  0
   35.8453  -22.2066   39.5966 C   0  0  0  0  0  0  0  0  0  0  0  0
   35.1681  -21.6347   38.5445 C   0  0  0  0  0  0  0  0  0  0  0  0
   33.8092  -21.4564   38.5675 C   0  0  0  0  0  0  0  0  0  0  0  0
   33.2004  -20.8802   37.4714 C   0  0  0  0  0  0  0  0  0  0  0  0
   33.9634  -20.4883   36.3614 C   0  0  0  0  0  0  0  0  0  0  0  0
   35.2720  -20.6905   36.4080 N   0  0  0  0  0  0  0  0  0  0  0  0
   35.9233  -21.2410   37.4339 C   0  0  0  0  0  0  0  0  0  0  0  0
   37.2856  -21.4244   37.4094 C   0  0  0  0  0  0  0  0  0  0  0  0
   37.9608  -21.9954   38.4617 C   0  0  0  0  0  0  0  0  0  0  0  0
   33.2463  -19.8854   35.2319 C   0  0  0  0  0  0  0  0  0  0  0  0
   33.3117  -18.3555   35.2818 C   0  0  0  0  0  0  0  0  0  0  0  0
   32.8359  -17.8450   33.9558 C   0  0  0  0  0  0  0  0  0  0  0  0
   31.4474  -18.3094   33.6151 C   0  0  0  0  0  0  0  0  0  0  0  0
   31.2213  -19.7624   33.8706 C   0  0  0  0  0  0  0  0  0  0  0  0
   31.7769  -20.2385   35.1959 C   0  0  0  0  0  0  0  0  0  0  0  0
   38.0888  -24.3479   40.7454 C   0  0  0  0  0  0  0  0  0  0  0  0
   37.8336  -22.9718   40.6615 O   0  0  0  0  0  0  0  0  0  0  0  0
   33.0127  -21.8208   39.6691 N   0  0  0  0  0  0  0  0  0  0  0  0
   33.2153  -21.4015   40.5982 H   0  0  0  0  0  0  0  0  0  0  0  0
   31.9039  -22.7706   39.5433 C   0  0  0  0  0  0  0  0  0  0  0  0
   31.2606  -22.9115   40.9030 C   0  0  0  0  0  0  0  0  0  0  0  0
   30.5121  -24.2004   40.9648 C   0  0  0  0  0  0  0  0  0  0  0  0
   31.4128  -25.3094   41.0148 N   0  0  0  0  0  0  0  0  0  0  0  0
   32.6888  -25.0168   40.3890 C   0  0  0  0  0  0  0  0  0  0  0  0
   32.4274  -24.1454   39.1710 C   0  0  0  0  0  0  0  0  0  0  0  0
   31.5497  -25.8530   42.3245 C   0  0  0  0  0  0  0  0  0  0  0  0
   30.8117  -25.1363   43.4070 C   0  0  0  0  0  0  0  0  0  0  0  0
   33.0148  -25.8841   42.7382 C   0  0  0  0  0  0  0  0  0  0  0  0
   39.2825  -22.2023   38.5078 O   0  0  0  0  0  0  0  0  0  0  0  0
   40.3787  -21.6705   37.8863 C   0  0  0  0  0  0  0  0  0  0  0  0
   41.6980  -21.9088   38.5604 C   0  0  0  0  0  0  0  0  0  0  0  0
   41.7322  -20.9911   39.7876 C   0  0  0  0  0  0  0  0  0  0  0  0
   43.0529  -20.5126   40.0800 N   0  0  0  0  0  0  0  0  0  0  0  0
   43.6007  -20.9959   41.3073 C   0  0  0  0  0  0  0  0  0  0  0  0
   43.1271  -19.9255   42.2981 C   0  0  0  0  0  0  0  0  0  0  0  0
   43.4674  -18.6643   41.4975 C   0  0  0  0  0  0  0  0  0  0  0  0
   43.0182  -19.0832   40.1184 C   0  0  0  0  0  0  0  0  0  0  0  0
 17 18  1  0  0  0
 18  1  1  0  0  0
  1  2  2  0  0  0
  2  3  1  0  0  0
  3  4  2  0  0  0
  4 19  1  0  0  0
 19 21  1  0  0  0
 21 22  1  0  0  0
 22 23  1  0  0  0
 23 24  1  0  0  0
 24 25  1  0  0  0
 25 26  1  0  0  0
 24 27  1  0  0  0
 27 28  1  0  0  0
 27 29  1  0  0  0
  4  5  1  0  0  0
  5  6  2  0  0  0
  6  7  1  0  0  0
  7  8  2  0  0  0
  8  9  1  0  0  0
  9 10  2  0  0  0
 10 30  1  0  0  0
 30 31  1  0  0  0
 31 32  1  0  0  0
 32 33  1  0  0  0
 33 34  1  0  0  0
 34 35  1  0  0  0
 35 36  1  0  0  0
 36 37  1  0  0  0
 37 38  1  0  0  0
  6 11  1  0  0  0
 11 12  1  0  0  0
 12 13  1  0  0  0
 13 14  1  0  0  0
 14 15  1  0  0  0
 15 16  1  0  0  0
 10  1  1  0  0  0
 38 34  1  0  0  0
 16 11  1  0  0  0
  8  3  1  0  0  0
 26 21  1  0  0  0
 19 20  1  0  0  0
M  END
> <minimizedAffinity>
-1.38020

> <CNNscore>
0.4774254560

> <CNNaffinity>
5.9306564331

> <CNN_VS>
2.8314464092

> <CNNaffinity_variance>
0.5229396820

$$$$
[H]c1c(C2([H])C([H])([H])C([H])([H])C([H])([H])C([H])([H])C2([H])[H])nc2c([H])c(OC([H])([H])C([H])([H])C([H])([H])N3C([H])([H])C([H])([H])C([H])([H])C3([H])[H])c(OC([H])([H])[H])c([H])c2c1N([H])C1([H])C([H])([H])C([H])([H])N(C([H])(C([H])([H])[H])C([H])([H])[H])C([H])([H])C1([H])[H]


 38 42  0  0  0  0  0  0  0  0999 V2000
   38.2677  -19.5630   36.8540 C   0  0  0  0  0  0  0  0  0  0  0  0
   37.9422  -20.1465   38.0744 C   0  0  0  0  0  0  0  0  0  0  0  0
   36.7922  -20.8782   38.2608 C   0  0  0  0  0  0  0  0  0  0  0  0
   36.4850  -21.4522   39.4670 C   0  0  0  0  0  0  0  0  0  0  0  0
   35.3153  -22.1762   39.5748 C   0  0  0  0  0  0  0  0  0  0  0  0
   34.4644  -22.3170   38.4684 C   0  0  0  0  0  0  0  0  0  0  0  0
   34.8241  -21.7350   37.3337 N   0  0  0  0  0  0  0  0  0  0  0  0
   35.9385  -21.0223   37.1611 C   0  0  0  0  0  0  0  0  0  0  0  0
   36.2493  -20.4504   35.9502 C   0  0  0  0  0  0  0  0  0  0  0  0
   37.3985  -19.7192   35.7657 C   0  0  0  0  0  0  0  0  0  0  0  0
   33.2401  -23.1035   38.6578 C   0  0  0  0  0  0  0  0  0  0  0  0
   32.0189  -22.3840   38.0760 C   0  0  0  0  0  0  0  0  0  0  0  0
   30.8954  -23.3746   38.0341 C   0  0  0  0  0  0  0  0  0  0  0  0
   30.5795  -23.9571   39.3833 C   0  0  0  0  0  0  0  0  0  0  0  0
   31.7873  -24.3773   40.1529 C   0  0  0  0  0  0  0  0  0  0  0  0
   32.9149  -23.3681   40.1102 C   0  0  0  0  0  0  0  0  0  0  0  0
   40.6635  -19.3315   37.1855 C   0  0  0  0  0  0  0  0  0  0  0  0
   39.4257  -18.8494   36.7366 O   0  0  0  0  0  0  0  0  0  0  0  0
   37.3044  -21.3189   40.6034 N   0  0  0  0  0  0  0  0  0  0  0  0
   36.9003  -20.9152   41.4717 H   0  0  0  0  0  0  0  0  0  0  0  0
   38.7090  -21.7366   40.5994 C   0  0  0  0  0  0  0  0  0  0  0  0
   38.7412  -23.2467   40.5660 C   0  0  0  0  0  0  0  0  0  0  0  0
   40.0574  -23.7248   41.0801 C   0  0  0  0  0  0  0  0  0  0  0  0
   40.1572  -23.5187   42.4913 N   0  0  0  0  0  0  0  0  0  0  0  0
   39.3386  -22.4118   42.9498 C   0  0  0  0  0  0  0  0  0  0  0  0
   39.3861  -21.3209   41.8922 C   0  0  0  0  0  0  0  0  0  0  0  0
   39.9469  -24.7113   43.2414 C   0  0  0  0  0  0  0  0  0  0  0  0
   41.0907  -25.1549   44.0928 C   0  0  0  0  0  0  0  0  0  0  0  0
   39.6134  -25.8723   42.3144 C   0  0  0  0  0  0  0  0  0  0  0  0
   37.7634  -19.1334   34.6187 O   0  0  0  0  0  0  0  0  0  0  0  0
   38.6910  -19.3816   33.6448 C   0  0  0  0  0  0  0  0  0  0  0  0
   39.3634  -20.7219   33.7021 C   0  0  0  0  0  0  0  0  0  0  0  0
   40.7903  -20.5160   33.1817 C   0  0  0  0  0  0  0  0  0  0  0  0
   41.7303  -21.4188   33.7818 N   0  0  0  0  0  0  0  0  0  0  0  0
   42.1006  -22.5243   32.9567 C   0  0  0  0  0  0  0  0  0  0  0  0
   41.0423  -23.5647   33.3432 C   0  0  0  0  0  0  0  0  0  0  0  0
   41.0812  -23.4180   34.8677 C   0  0  0  0  0  0  0  0  0  0  0  0
   41.1665  -21.9163   34.9985 C   0  0  0  0  0  0  0  0  0  0  0  0
 17 18  1  0  0  0
 18  1  1  0  0  0
  1  2  2  0  0  0
  2  3  1  0  0  0
  3  4  2  0  0  0
  4 19  1  0  0  0
 19 21  1  0  0  0
 21 22  1  0  0  0
 22 23  1  0  0  0
 23 24  1  0  0  0
 24 25  1  0  0  0
 25 26  1  0  0  0
 24 27  1  0  0  0
 27 28  1  0  0  0
 27 29  1  0  0  0
  4  5  1  0  0  0
  5  6  2  0  0  0
  6  7  1  0  0  0
  7  8  2  0  0  0
  8  9  1  0  0  0
  9 10  2  0  0  0
 10 30  1  0  0  0
 30 31  1  0  0  0
 31 32  1  0  0  0
 32 33  1  0  0  0
 33 34  1  0  0  0
 34 35  1  0  0  0
 35 36  1  0  0  0
 36 37  1  0  0  0
 37 38  1  0  0  0
  6 11  1  0  0  0
 11 12  1  0  0  0
 12 13  1  0  0  0
 13 14  1  0  0  0
 14 15  1  0  0  0
 15 16  1  0  0  0
 10  1  1  0  0  0
 38 34  1  0  0  0
 16 11  1  0  0  0
  8  3  1  0  0  0
 26 21  1  0  0  0
 19 20  1  0  0  0
M  END
> <minimizedAffinity>
-2.86153

> <CNNscore>
0.4642871916

> <CNNaffinity>
6.1155176163

> <CNN_VS>
2.8393564224

> <CNNaffinity_variance>
0.6854057312

$$$$
[H]c1c(C2([H])C([H])([H])C([H])([H])C([H])([H])C([H])([H])C2([H])[H])nc2c([H])c(OC([H])([H])C([H])([H])C([H])([H])N3C([H])([H])C([H])([H])C([H])([H])C3([H])[H])c(OC([H])([H])[H])c([H])c2c1N([H])C1([H])C([H])([H])C([H])([H])N(C([H])(C([H])([H])[H])C([H])([H])[H])C([H])([H])C1([H])[H]


 38 42  0  0  0  0  0  0  0  0999 V2000
   36.0563  -22.1078   39.5148 C   0  0  0  0  0  0  0  0  0  0  0  0
   36.2334  -20.8339   38.9842 C   0  0  0  0  0  0  0  0  0  0  0  0
   37.1476  -20.5671   37.9913 C   0  0  0  0  0  0  0  0  0  0  0  0
   37.3095  -19.3084   37.4734 C   0  0  0  0  0  0  0  0  0  0  0  0
   38.2433  -19.1203   36.4751 C   0  0  0  0  0  0  0  0  0  0  0  0
   39.0064  -20.1999   36.0060 C   0  0  0  0  0  0  0  0  0  0  0  0
   38.7973  -21.3886   36.5525 N   0  0  0  0  0  0  0  0  0  0  0  0
   37.9126  -21.6396   37.5189 C   0  0  0  0  0  0  0  0  0  0  0  0
   37.7466  -22.9029   38.0353 C   0  0  0  0  0  0  0  0  0  0  0  0
   36.8331  -23.1677   39.0277 C   0  0  0  0  0  0  0  0  0  0  0  0
   39.9775  -19.9241   34.9409 C   0  0  0  0  0  0  0  0  0  0  0  0
   41.3323  -20.5748   35.2385 C   0  0  0  0  0  0  0  0  0  0  0  0
   42.1452  -20.5078   33.9816 C   0  0  0  0  0  0  0  0  0  0  0  0
   42.3266  -19.1033   33.4773 C   0  0  0  0  0  0  0  0  0  0  0  0
   41.0703  -18.2975   33.4819 C   0  0  0  0  0  0  0  0  0  0  0  0
   40.2562  -18.4508   34.7490 C   0  0  0  0  0  0  0  0  0  0  0  0
   33.8945  -22.9236   40.2661 C   0  0  0  0  0  0  0  0  0  0  0  0
   35.1307  -22.3043   40.4991 O   0  0  0  0  0  0  0  0  0  0  0  0
   36.5751  -18.1979   37.9297 N   0  0  0  0  0  0  0  0  0  0  0  0
   37.0579  -17.4729   38.4969 H   0  0  0  0  0  0  0  0  0  0  0  0
   35.1514  -18.0319   37.6250 C   0  0  0  0  0  0  0  0  0  0  0  0
   34.5243  -19.4060   37.5881 C   0  0  0  0  0  0  0  0  0  0  0  0
   33.2634  -19.3530   36.7927 C   0  0  0  0  0  0  0  0  0  0  0  0
   33.5467  -19.1865   35.4014 N   0  0  0  0  0  0  0  0  0  0  0  0
   34.8090  -18.5096   35.1690 C   0  0  0  0  0  0  0  0  0  0  0  0
   34.9747  -17.4416   36.2383 C   0  0  0  0  0  0  0  0  0  0  0  0
   33.4235  -20.3980   34.6623 C   0  0  0  0  0  0  0  0  0  0  0  0
   32.9027  -20.2606   33.2694 C   0  0  0  0  0  0  0  0  0  0  0  0
   32.4993  -21.3703   35.3826 C   0  0  0  0  0  0  0  0  0  0  0  0
   36.6199  -24.3692   39.5781 O   0  0  0  0  0  0  0  0  0  0  0  0
   37.3677  -25.2666   40.2893 C   0  0  0  0  0  0  0  0  0  0  0  0
   38.3163  -24.6826   41.2947 C   0  0  0  0  0  0  0  0  0  0  0  0
   38.9482  -25.8661   42.0361 C   0  0  0  0  0  0  0  0  0  0  0  0
   39.3567  -25.5256   43.3688 N   0  0  0  0  0  0  0  0  0  0  0  0
   38.3756  -24.8168   44.1270 C   0  0  0  0  0  0  0  0  0  0  0  0
   38.7142  -23.3610   43.7837 C   0  0  0  0  0  0  0  0  0  0  0  0
   40.2373  -23.4061   43.9429 C   0  0  0  0  0  0  0  0  0  0  0  0
   40.5441  -24.7321   43.2893 C   0  0  0  0  0  0  0  0  0  0  0  0
 17 18  1  0  0  0
 18  1  1  0  0  0
  1  2  2  0  0  0
  2  3  1  0  0  0
  3  4  2  0  0  0
  4 19  1  0  0  0
 19 21  1  0  0  0
 21 22  1  0  0  0
 22 23  1  0  0  0
 23 24  1  0  0  0
 24 25  1  0  0  0
 25 26  1  0  0  0
 24 27  1  0  0  0
 27 28  1  0  0  0
 27 29  1  0  0  0
  4  5  1  0  0  0
  5  6  2  0  0  0
  6  7  1  0  0  0
  7  8  2  0  0  0
  8  9  1  0  0  0
  9 10  2  0  0  0
 10 30  1  0  0  0
 30 31  1  0  0  0
 31 32  1  0  0  0
 32 33  1  0  0  0
 33 34  1  0  0  0
 34 35  1  0  0  0
 35 36  1  0  0  0
 36 37  1  0  0  0
 37 38  1  0  0  0
  6 11  1  0  0  0
 11 12  1  0  0  0
 12 13  1  0  0  0
 13 14  1  0  0  0
 14 15  1  0  0  0
 15 16  1  0  0  0
 10  1  1  0  0  0
 38 34  1  0  0  0
 16 11  1  0  0  0
  8  3  1  0  0  0
 26 21  1  0  0  0
 19 20  1  0  0  0
M  END
> <minimizedAffinity>
-1.42651

> <CNNscore>
0.4289925694

> <CNNaffinity>
6.5701117516

> <CNN_VS>
2.8185291290

> <CNNaffinity_variance>
2.2024452686

$$$$
[H]c1c(OC([H])([H])C([H])([H])C([H])([H])N2C([H])([H])C([H])([H])C([H])([H])C2([H])[H])c(OC([H])([H])[H])c([H])c2c(N([H])C3([H])C([H])([H])C([H])([H])N(C([H])(C([H])([H])[H])C([H])([H])[H])C([H])([H])C3([H])[H])nc(N3C([H])([H])C([H])([H])C([H])([H])C([H])([H])C3([H])[H])nc12


 38 42  0  0  0  0  0  0  0  0999 V2000
   36.0982  -13.8582   36.7503 C   0  0  0  0  0  0  0  0  0  0  0  0
   36.5589  -15.0976   36.3853 C   0  0  0  0  0  0  0  0  0  0  0  0
   35.6893  -16.0833   35.9953 C   0  0  0  0  0  0  0  0  0  0  0  0
   36.1159  -17.3277   35.6192 C   0  0  0  0  0  0  0  0  0  0  0  0
   35.1515  -18.2158   35.2452 N   0  0  0  0  0  0  0  0  0  0  0  0
   33.8503  -17.9302   35.2325 C   0  0  0  0  0  0  0  0  0  0  0  0
   33.4424  -16.7069   35.6039 N   0  0  0  0  0  0  0  0  0  0  0  0
   34.3156  -15.7688   35.9867 C   0  0  0  0  0  0  0  0  0  0  0  0
   33.8638  -14.5011   36.3619 C   0  0  0  0  0  0  0  0  0  0  0  0
   34.7371  -13.5344   36.7449 C   0  0  0  0  0  0  0  0  0  0  0  0
   32.8530  -18.8716   34.8371 N   0  0  0  0  0  0  0  0  0  0  0  0
   33.1704  -20.0038   33.9927 C   0  0  0  0  0  0  0  0  0  0  0  0
   32.7337  -21.2553   34.7517 C   0  0  0  0  0  0  0  0  0  0  0  0
   31.2394  -21.1926   34.9090 C   0  0  0  0  0  0  0  0  0  0  0  0
   30.6740  -19.8319   34.5500 C   0  0  0  0  0  0  0  0  0  0  0  0
   31.4754  -18.7361   35.2631 C   0  0  0  0  0  0  0  0  0  0  0  0
   38.2844  -13.2445   37.5354 C   0  0  0  0  0  0  0  0  0  0  0  0
   36.9800  -12.8821   37.1389 O   0  0  0  0  0  0  0  0  0  0  0  0
   37.4787  -17.6848   35.6437 N   0  0  0  0  0  0  0  0  0  0  0  0
   38.1908  -16.9655   35.8717 H   0  0  0  0  0  0  0  0  0  0  0  0
   37.9424  -19.0297   35.3611 C   0  0  0  0  0  0  0  0  0  0  0  0
   38.6282  -19.1689   34.0261 C   0  0  0  0  0  0  0  0  0  0  0  0
   38.9278  -20.6709   33.8950 C   0  0  0  0  0  0  0  0  0  0  0  0
   39.9257  -20.9923   34.8867 N   0  0  0  0  0  0  0  0  0  0  0  0
   39.4334  -20.8410   36.2196 C   0  0  0  0  0  0  0  0  0  0  0  0
   38.9205  -19.4381   36.4316 C   0  0  0  0  0  0  0  0  0  0  0  0
   40.4585  -22.3234   34.6436 C   0  0  0  0  0  0  0  0  0  0  0  0
   39.2932  -23.2333   34.3207 C   0  0  0  0  0  0  0  0  0  0  0  0
   41.3973  -22.3401   33.4809 C   0  0  0  0  0  0  0  0  0  0  0  0
   34.3503  -12.2915   37.1110 O   0  0  0  0  0  0  0  0  0  0  0  0
   33.4492  -12.0281   38.1503 C   0  0  0  0  0  0  0  0  0  0  0  0
   32.2304  -11.2723   37.7808 C   0  0  0  0  0  0  0  0  0  0  0  0
   31.1895  -12.0518   37.0745 C   0  0  0  0  0  0  0  0  0  0  0  0
   29.8623  -11.7721   37.5128 N   0  0  0  0  0  0  0  0  0  0  0  0
   29.6845  -12.4223   38.8748 C   0  0  0  0  0  0  0  0  0  0  0  0
   28.2894  -11.9243   39.1877 C   0  0  0  0  0  0  0  0  0  0  0  0
   28.2839  -10.5154   38.6164 C   0  0  0  0  0  0  0  0  0  0  0  0
   29.7037  -10.3909   38.0317 C   0  0  0  0  0  0  0  0  0  0  0  0
 17 18  1  0  0  0
 18  1  1  0  0  0
  1  2  2  0  0  0
  2  3  1  0  0  0
  3  4  2  0  0  0
  4 19  1  0  0  0
 19 21  1  0  0  0
 21 22  1  0  0  0
 22 23  1  0  0  0
 23 24  1  0  0  0
 24 25  1  0  0  0
 25 26  1  0  0  0
 24 27  1  0  0  0
 27 28  1  0  0  0
 27 29  1  0  0  0
  4  5  1  0  0  0
  5  6  2  0  0  0
  6  7  1  0  0  0
  7  8  2  0  0  0
  8  9  1  0  0  0
  9 10  2  0  0  0
 10 30  1  0  0  0
 30 31  1  0  0  0
 31 32  1  0  0  0
 32 33  1  0  0  0
 33 34  1  0  0  0
 34 35  1  0  0  0
 35 36  1  0  0  0
 36 37  1  0  0  0
 37 38  1  0  0  0
  6 11  1  0  0  0
 11 12  1  0  0  0
 12 13  1  0  0  0
 13 14  1  0  0  0
 14 15  1  0  0  0
 15 16  1  0  0  0
 10  1  1  0  0  0
 38 34  1  0  0  0
 16 11  1  0  0  0
  8  3  1  0  0  0
 26 21  1  0  0  0
 19 20  1  0  0  0
M  END
> <minimizedAffinity>
-8.40791

> <CNNscore>
0.7870200276

> <CNNaffinity>
7.3812546730

> <CNN_VS>
5.8091950417

> <CNNaffinity_variance>
0.0575291626

$$$$
[H]c1c(OC([H])([H])C([H])([H])C([H])([H])N2C([H])([H])C([H])([H])C([H])([H])C2([H])[H])c(OC([H])([H])[H])c([H])c2c(N([H])C3([H])C([H])([H])C([H])([H])N(C([H])(C([H])([H])[H])C([H])([H])[H])C([H])([H])C3([H])[H])nc(N3C([H])([H])C([H])([H])C([H])([H])C([H])([H])C3([H])[H])nc12


 38 42  0  0  0  0  0  0  0  0999 V2000
   36.0738  -14.6944   36.1907 C   0  0  0  0  0  0  0  0  0  0  0  0
   36.4543  -15.9903   35.9513 C   0  0  0  0  0  0  0  0  0  0  0  0
   35.5191  -16.9637   35.7103 C   0  0  0  0  0  0  0  0  0  0  0  0
   35.8648  -18.2640   35.4617 C   0  0  0  0  0  0  0  0  0  0  0  0
   34.8408  -19.1335   35.2293 N   0  0  0  0  0  0  0  0  0  0  0  0
   33.5565  -18.7795   35.2353 C   0  0  0  0  0  0  0  0  0  0  0  0
   33.2281  -17.5018   35.4809 N   0  0  0  0  0  0  0  0  0  0  0  0
   34.1641  -16.5766   35.7199 C   0  0  0  0  0  0  0  0  0  0  0  0
   33.7945  -15.2519   35.9660 C   0  0  0  0  0  0  0  0  0  0  0  0
   34.7320  -14.2984   36.2020 C   0  0  0  0  0  0  0  0  0  0  0  0
   32.4959  -19.7025   34.9890 N   0  0  0  0  0  0  0  0  0  0  0  0
   32.6758  -20.8534   34.1295 C   0  0  0  0  0  0  0  0  0  0  0  0
   32.3151  -22.0837   34.9598 C   0  0  0  0  0  0  0  0  0  0  0  0
   30.8558  -21.9835   35.3093 C   0  0  0  0  0  0  0  0  0  0  0  0
   30.2779  -20.6150   35.0043 C   0  0  0  0  0  0  0  0  0  0  0  0
   31.1891  -19.5287   35.5885 C   0  0  0  0  0  0  0  0  0  0  0  0
   37.7423  -13.7560   37.6426 C   0  0  0  0  0  0  0  0  0  0  0  0
   37.0205  -13.7314   36.4308 O   0  0  0  0  0  0  0  0  0  0  0  0
   37.2075  -18.6911   35.4732 N   0  0  0  0  0  0  0  0  0  0  0  0
   37.8948  -18.2310   34.8466 H   0  0  0  0  0  0  0  0  0  0  0  0
   37.6836  -19.7593   36.3309 C   0  0  0  0  0  0  0  0  0  0  0  0
   39.1541  -19.6737   36.6503 C   0  0  0  0  0  0  0  0  0  0  0  0
   39.4528  -20.9443   37.4620 C   0  0  0  0  0  0  0  0  0  0  0  0
   38.7665  -20.8121   38.7245 N   0  0  0  0  0  0  0  0  0  0  0  0
   37.3458  -20.8113   38.5715 C   0  0  0  0  0  0  0  0  0  0  0  0
   36.9218  -19.7116   37.6297 C   0  0  0  0  0  0  0  0  0  0  0  0
   39.2209  -21.8391   39.6482 C   0  0  0  0  0  0  0  0  0  0  0  0
   38.5114  -23.1268   39.2896 C   0  0  0  0  0  0  0  0  0  0  0  0
   40.6928  -22.0727   39.5361 C   0  0  0  0  0  0  0  0  0  0  0  0
   34.4254  -13.0029   36.4392 O   0  0  0  0  0  0  0  0  0  0  0  0
   34.0332  -12.5092   37.6898 C   0  0  0  0  0  0  0  0  0  0  0  0
   32.5945  -12.6339   38.0180 C   0  0  0  0  0  0  0  0  0  0  0  0
   31.7077  -11.6394   37.3743 C   0  0  0  0  0  0  0  0  0  0  0  0
   30.3196  -11.9398   37.4959 N   0  0  0  0  0  0  0  0  0  0  0  0
   30.0768  -12.4083   38.9211 C   0  0  0  0  0  0  0  0  0  0  0  0
   28.5722  -12.5647   38.8592 C   0  0  0  0  0  0  0  0  0  0  0  0
   28.1353  -11.4056   37.9777 C   0  0  0  0  0  0  0  0  0  0  0  0
   29.4756  -10.7273   37.6363 C   0  0  0  0  0  0  0  0  0  0  0  0
 17 18  1  0  0  0
 18  1  1  0  0  0
  1  2  2  0  0  0
  2  3  1  0  0  0
  3  4  2  0  0  0
  4 19  1  0  0  0
 19 21  1  0  0  0
 21 22  1  0  0  0
 22 23  1  0  0  0
 23 24  1  0  0  0
 24 25  1  0  0  0
 25 26  1  0  0  0
 24 27  1  0  0  0
 27 28  1  0  0  0
 27 29  1  0  0  0
  4  5  1  0  0  0
  5  6  2  0  0  0
  6  7  1  0  0  0
  7  8  2  0  0  0
  8  9  1  0  0  0
  9 10  2  0  0  0
 10 30  1  0  0  0
 30 31  1  0  0  0
 31 32  1  0  0  0
 32 33  1  0  0  0
 33 34  1  0  0  0
 34 35  1  0  0  0
 35 36  1  0  0  0
 36 37  1  0  0  0
 37 38  1  0  0  0
  6 11  1  0  0  0
 11 12  1  0  0  0
 12 13  1  0  0  0
 13 14  1  0  0  0
 14 15  1  0  0  0
 15 16  1  0  0  0
 10  1  1  0  0  0
 38 34  1  0  0  0
 16 11  1  0  0  0
  8  3  1  0  0  0
 26 21  1  0  0  0
 19 20  1  0  0  0
M  END
> <minimizedAffinity>
-7.83103

> <CNNscore>
0.4720070660

> <CNNaffinity>
6.8432488441

> <CNN_VS>
3.2300617695

> <CNNaffinity_variance>
0.2172032893

$$$$
[H]c1c(OC([H])([H])C([H])([H])C([H])([H])N2C([H])([H])C([H])([H])C([H])([H])C2([H])[H])c(OC([H])([H])[H])c([H])c2c(N([H])C3([H])C([H])([H])C([H])([H])N(C([H])(C([H])([H])[H])C([H])([H])[H])C([H])([H])C3([H])[H])nc(N3C([H])([H])C([H])([H])C([H])([H])C([H])([H])C3([H])[H])nc12


 38 42  0  0  0  0  0  0  0  0999 V2000
   36.3765  -14.5246   36.4546 C   0  0  0  0  0  0  0  0  0  0  0  0
   36.9474  -15.7705   36.3974 C   0  0  0  0  0  0  0  0  0  0  0  0
   36.1818  -16.8839   36.1641 C   0  0  0  0  0  0  0  0  0  0  0  0
   36.7202  -18.1398   36.0947 C   0  0  0  0  0  0  0  0  0  0  0  0
   35.8526  -19.1624   35.8492 N   0  0  0  0  0  0  0  0  0  0  0  0
   34.5419  -18.9937   35.6804 C   0  0  0  0  0  0  0  0  0  0  0  0
   34.0239  -17.7578   35.7512 N   0  0  0  0  0  0  0  0  0  0  0  0
   34.7968  -16.6921   35.9879 C   0  0  0  0  0  0  0  0  0  0  0  0
   34.2321  -15.4157   36.0496 C   0  0  0  0  0  0  0  0  0  0  0  0
   35.0031  -14.3221   36.2804 C   0  0  0  0  0  0  0  0  0  0  0  0
   33.6470  -20.0755   35.4230 N   0  0  0  0  0  0  0  0  0  0  0  0
   33.3779  -21.0911   36.4188 C   0  0  0  0  0  0  0  0  0  0  0  0
   31.8659  -21.1061   36.6352 C   0  0  0  0  0  0  0  0  0  0  0  0
   31.2267  -21.5355   35.3434 C   0  0  0  0  0  0  0  0  0  0  0  0
   32.2040  -21.5364   34.1837 C   0  0  0  0  0  0  0  0  0  0  0  0
   32.9667  -20.2064   34.1512 C   0  0  0  0  0  0  0  0  0  0  0  0
   38.0889  -13.4423   37.7463 C   0  0  0  0  0  0  0  0  0  0  0  0
   37.1549  -13.4200   36.6894 O   0  0  0  0  0  0  0  0  0  0  0  0
   38.0956  -18.3707   36.2948 N   0  0  0  0  0  0  0  0  0  0  0  0
   38.6388  -17.7257   36.8994 H   0  0  0  0  0  0  0  0  0  0  0  0
   38.8009  -19.4830   35.6873 C   0  0  0  0  0  0  0  0  0  0  0  0
   39.8819  -19.0649   34.7238 C   0  0  0  0  0  0  0  0  0  0  0  0
   40.4065  -20.3816   34.1291 C   0  0  0  0  0  0  0  0  0  0  0  0
   41.0779  -21.0894   35.1925 N   0  0  0  0  0  0  0  0  0  0  0  0
   40.1779  -21.4970   36.2248 C   0  0  0  0  0  0  0  0  0  0  0  0
   39.4407  -20.3024   36.7777 C   0  0  0  0  0  0  0  0  0  0  0  0
   41.8339  -22.2059   34.6478 C   0  0  0  0  0  0  0  0  0  0  0  0
   41.1285  -23.4813   35.0550 C   0  0  0  0  0  0  0  0  0  0  0  0
   41.8888  -22.1615   33.1550 C   0  0  0  0  0  0  0  0  0  0  0  0
   34.5053  -13.0665   36.3432 O   0  0  0  0  0  0  0  0  0  0  0  0
   34.2449  -12.3883   37.5407 C   0  0  0  0  0  0  0  0  0  0  0  0
   32.8284  -12.3441   37.9703 C   0  0  0  0  0  0  0  0  0  0  0  0
   31.8313  -12.4075   36.8786 C   0  0  0  0  0  0  0  0  0  0  0  0
   30.5376  -11.9388   37.2508 N   0  0  0  0  0  0  0  0  0  0  0  0
   30.2958  -12.3602   38.6907 C   0  0  0  0  0  0  0  0  0  0  0  0
   28.9561  -11.6885   38.9057 C   0  0  0  0  0  0  0  0  0  0  0  0
   29.0893  -10.3858   38.1333 C   0  0  0  0  0  0  0  0  0  0  0  0
   30.5149  -10.4872   37.5584 C   0  0  0  0  0  0  0  0  0  0  0  0
 17 18  1  0  0  0
 18  1  1  0  0  0
  1  2  2  0  0  0
  2  3  1  0  0  0
  3  4  2  0  0  0
  4 19  1  0  0  0
 19 21  1  0  0  0
 21 22  1  0  0  0
 22 23  1  0  0  0
 23 24  1  0  0  0
 24 25  1  0  0  0
 25 26  1  0  0  0
 24 27  1  0  0  0
 27 28  1  0  0  0
 27 29  1  0  0  0
  4  5  1  0  0  0
  5  6  2  0  0  0
  6  7  1  0  0  0
  7  8  2  0  0  0
  8  9  1  0  0  0
  9 10  2  0  0  0
 10 30  1  0  0  0
 30 31  1  0  0  0
 31 32  1  0  0  0
 32 33  1  0  0  0
 33 34  1  0  0  0
 34 35  1  0  0  0
 35 36  1  0  0  0
 36 37  1  0  0  0
 37 38  1  0  0  0
  6 11  1  0  0  0
 11 12  1  0  0  0
 12 13  1  0  0  0
 13 14  1  0  0  0
 14 15  1  0  0  0
 15 16  1  0  0  0
 10  1  1  0  0  0
 38 34  1  0  0  0
 16 11  1  0  0  0
  8  3  1  0  0  0
 26 21  1  0  0  0
 19 20  1  0  0  0
M  END
> <minimizedAffinity>
-7.94667

> <CNNscore>
0.4594430625

> <CNNaffinity>
6.7966446877

> <CNN_VS>
3.1226713657

> <CNNaffinity_variance>
0.0397864915

$$$$
[H]c1c(OC([H])([H])C([H])([H])C([H])([H])N2C([H])([H])C([H])([H])C([H])([H])C2([H])[H])c(OC([H])([H])[H])c([H])c2c(N([H])C3([H])C([H])([H])C([H])([H])N(C([H])(C([H])([H])[H])C([H])([H])[H])C([H])([H])C3([H])[H])nc(N3C([H])([H])C([H])([H])C([H])([H])C([H])([H])C3([H])[H])nc12


 38 42  0  0  0  0  0  0  0  0999 V2000
   35.9316  -14.8237   36.5743 C   0  0  0  0  0  0  0  0  0  0  0  0
   36.5190  -16.0562   36.7057 C   0  0  0  0  0  0  0  0  0  0  0  0
   35.8155  -17.2019   36.4363 C   0  0  0  0  0  0  0  0  0  0  0  0
   36.3729  -18.4461   36.5512 C   0  0  0  0  0  0  0  0  0  0  0  0
   35.5697  -19.5047   36.2464 N   0  0  0  0  0  0  0  0  0  0  0  0
   34.3025  -19.3806   35.8544 C   0  0  0  0  0  0  0  0  0  0  0  0
   33.7651  -18.1558   35.7457 N   0  0  0  0  0  0  0  0  0  0  0  0
   34.4759  -17.0572   36.0232 C   0  0  0  0  0  0  0  0  0  0  0  0
   33.8934  -15.7938   35.8949 C   0  0  0  0  0  0  0  0  0  0  0  0
   34.6031  -14.6678   36.1641 C   0  0  0  0  0  0  0  0  0  0  0  0
   33.4749  -20.4997   35.5380 N   0  0  0  0  0  0  0  0  0  0  0  0
   33.3160  -21.6092   36.4542 C   0  0  0  0  0  0  0  0  0  0  0  0
   31.8183  -21.7504   36.7193 C   0  0  0  0  0  0  0  0  0  0  0  0
   31.1599  -22.1191   35.4184 C   0  0  0  0  0  0  0  0  0  0  0  0
   32.0884  -21.9559   34.2304 C   0  0  0  0  0  0  0  0  0  0  0  0
   32.7556  -20.5762   34.2833 C   0  0  0  0  0  0  0  0  0  0  0  0
   37.7879  -13.7672   37.6744 C   0  0  0  0  0  0  0  0  0  0  0  0
   36.6476  -13.6863   36.8478 O   0  0  0  0  0  0  0  0  0  0  0  0
   37.6996  -18.6283   36.9893 N   0  0  0  0  0  0  0  0  0  0  0  0
   37.9722  -18.3087   37.9380 H   0  0  0  0  0  0  0  0  0  0  0  0
   38.7191  -19.2502   36.1662 C   0  0  0  0  0  0  0  0  0  0  0  0
   40.1273  -18.8969   36.5712 C   0  0  0  0  0  0  0  0  0  0  0  0
   41.0182  -19.5648   35.5116 C   0  0  0  0  0  0  0  0  0  0  0  0
   40.9006  -20.9911   35.6965 N   0  0  0  0  0  0  0  0  0  0  0  0
   39.5846  -21.4680   35.4091 C   0  0  0  0  0  0  0  0  0  0  0  0
   38.5693  -20.7463   36.2602 C   0  0  0  0  0  0  0  0  0  0  0  0
   41.9185  -21.6796   34.9190 C   0  0  0  0  0  0  0  0  0  0  0  0
   41.7000  -21.3298   33.4630 C   0  0  0  0  0  0  0  0  0  0  0  0
   43.2960  -21.2430   35.3003 C   0  0  0  0  0  0  0  0  0  0  0  0
   34.0867  -13.4234   36.0495 O   0  0  0  0  0  0  0  0  0  0  0  0
   32.7536  -13.1014   36.3337 C   0  0  0  0  0  0  0  0  0  0  0  0
   32.5183  -12.3425   37.5834 C   0  0  0  0  0  0  0  0  0  0  0  0
   33.6256  -11.4566   38.0066 C   0  0  0  0  0  0  0  0  0  0  0  0
   33.3348  -10.0672   37.8770 N   0  0  0  0  0  0  0  0  0  0  0  0
   34.1054   -9.5496   36.6737 C   0  0  0  0  0  0  0  0  0  0  0  0
   33.5826   -8.1288   36.6590 C   0  0  0  0  0  0  0  0  0  0  0  0
   32.1262   -8.2870   37.0655 C   0  0  0  0  0  0  0  0  0  0  0  0
   32.0046   -9.8088   37.2719 C   0  0  0  0  0  0  0  0  0  0  0  0
 17 18  1  0  0  0
 18  1  1  0  0  0
  1  2  2  0  0  0
  2  3  1  0  0  0
  3  4  2  0  0  0
  4 19  1  0  0  0
 19 21  1  0  0  0
 21 22  1  0  0  0
 22 23  1  0  0  0
 23 24  1  0  0  0
 24 25  1  0  0  0
 25 26  1  0  0  0
 24 27  1  0  0  0
 27 28  1  0  0  0
 27 29  1  0  0  0
  4  5  1  0  0  0
  5  6  2  0  0  0
  6  7  1  0  0  0
  7  8  2  0  0  0
  8  9  1  0  0  0
  9 10  2  0  0  0
 10 30  1  0  0  0
 30 31  1  0  0  0
 31 32  1  0  0  0
 32 33  1  0  0  0
 33 34  1  0  0  0
 34 35  1  0  0  0
 35 36  1  0  0  0
 36 37  1  0  0  0
 37 38  1  0  0  0
  6 11  1  0  0  0
 11 12  1  0  0  0
 12 13  1  0  0  0
 13 14  1  0  0  0
 14 15  1  0  0  0
 15 16  1  0  0  0
 10  1  1  0  0  0
 38 34  1  0  0  0
 16 11  1  0  0  0
  8  3  1  0  0  0
 26 21  1  0  0  0
 19 20  1  0  0  0
M  END
> <minimizedAffinity>
-7.41385

> <CNNscore>
0.3826736808

> <CNNaffinity>
6.5965280533

> <CNN_VS>
2.5243177414

> <CNNaffinity_variance>
0.0490308553

$$$$
[H]c1c(OC([H])([H])C([H])([H])C([H])([H])N2C([H])([H])C([H])([H])C([H])([H])C2([H])[H])c(OC([H])([H])[H])c([H])c2c(N([H])C3([H])C([H])([H])C([H])([H])N(C([H])(C([H])([H])[H])C([H])([H])[H])C([H])([H])C3([H])[H])nc(N3C([H])([H])C([H])([H])C([H])([H])C([H])([H])C3([H])[H])nc12


 38 42  0  0  0  0  0  0  0  0999 V2000
   33.1676  -20.7888   35.5555 C   0  0  0  0  0  0  0  0  0  0  0  0
   34.3369  -20.2053   35.9724 C   0  0  0  0  0  0  0  0  0  0  0  0
   34.4562  -18.8410   36.0393 C   0  0  0  0  0  0  0  0  0  0  0  0
   35.6057  -18.2273   36.4566 C   0  0  0  0  0  0  0  0  0  0  0  0
   35.5933  -16.8643   36.4857 N   0  0  0  0  0  0  0  0  0  0  0  0
   34.5399  -16.1283   36.1339 C   0  0  0  0  0  0  0  0  0  0  0  0
   33.4177  -16.7401   35.7254 N   0  0  0  0  0  0  0  0  0  0  0  0
   33.3353  -18.0738   35.6640 C   0  0  0  0  0  0  0  0  0  0  0  0
   32.1521  -18.6849   35.2415 C   0  0  0  0  0  0  0  0  0  0  0  0
   32.0483  -20.0374   35.1814 C   0  0  0  0  0  0  0  0  0  0  0  0
   34.5430  -14.7015   36.1711 N   0  0  0  0  0  0  0  0  0  0  0  0
   33.3324  -13.9344   35.9667 C   0  0  0  0  0  0  0  0  0  0  0  0
   33.1613  -13.0455   37.1970 C   0  0  0  0  0  0  0  0  0  0  0  0
   34.3217  -12.0893   37.2310 C   0  0  0  0  0  0  0  0  0  0  0  0
   35.4165  -12.4692   36.2528 C   0  0  0  0  0  0  0  0  0  0  0  0
   35.7599  -13.9550   36.4149 C   0  0  0  0  0  0  0  0  0  0  0  0
   33.4136  -22.9290   36.6193 C   0  0  0  0  0  0  0  0  0  0  0  0
   33.0631  -22.1550   35.4931 O   0  0  0  0  0  0  0  0  0  0  0  0
   36.7540  -18.9627   36.8111 N   0  0  0  0  0  0  0  0  0  0  0  0
   36.8769  -19.2754   37.7928 H   0  0  0  0  0  0  0  0  0  0  0  0
   37.7894  -19.3091   35.8564 C   0  0  0  0  0  0  0  0  0  0  0  0
   37.7026  -18.5446   34.5603 C   0  0  0  0  0  0  0  0  0  0  0  0
   38.8081  -19.1451   33.6771 C   0  0  0  0  0  0  0  0  0  0  0  0
   40.0713  -18.7759   34.2691 N   0  0  0  0  0  0  0  0  0  0  0  0
   40.2676  -19.3812   35.5486 C   0  0  0  0  0  0  0  0  0  0  0  0
   39.1326  -19.0236   36.4760 C   0  0  0  0  0  0  0  0  0  0  0  0
   41.1575  -19.0693   33.3480 C   0  0  0  0  0  0  0  0  0  0  0  0
   42.4445  -18.5974   33.9892 C   0  0  0  0  0  0  0  0  0  0  0  0
   41.2797  -20.5354   33.0849 C   0  0  0  0  0  0  0  0  0  0  0  0
   30.9240  -20.6758   34.7852 O   0  0  0  0  0  0  0  0  0  0  0  0
   30.1282  -21.4558   35.6337 C   0  0  0  0  0  0  0  0  0  0  0  0
   28.9478  -20.7821   36.2221 C   0  0  0  0  0  0  0  0  0  0  0  0
   28.2929  -21.5052   37.3348 C   0  0  0  0  0  0  0  0  0  0  0  0
   28.0275  -20.6916   38.4747 N   0  0  0  0  0  0  0  0  0  0  0  0
   26.9492  -19.6949   38.0832 C   0  0  0  0  0  0  0  0  0  0  0  0
   26.7535  -19.0269   39.4278 C   0  0  0  0  0  0  0  0  0  0  0  0
   26.9057  -20.1737   40.4143 C   0  0  0  0  0  0  0  0  0  0  0  0
   27.1822  -21.3723   39.4868 C   0  0  0  0  0  0  0  0  0  0  0  0
 17 18  1  0  0  0
 18  1  1  0  0  0
  1  2  2  0  0  0
  2  3  1  0  0  0
  3  4  2  0  0  0
  4 19  1  0  0  0
 19 21  1  0  0  0
 21 22  1  0  0  0
 22 23  1  0  0  0
 23 24  1  0  0  0
 24 25  1  0  0  0
 25 26  1  0  0  0
 24 27  1  0  0  0
 27 28  1  0  0  0
 27 29  1  0  0  0
  4  5  1  0  0  0
  5  6  2  0  0  0
  6  7  1  0  0  0
  7  8  2  0  0  0
  8  9  1  0  0  0
  9 10  2  0  0  0
 10 30  1  0  0  0
 30 31  1  0  0  0
 31 32  1  0  0  0
 32 33  1  0  0  0
 33 34  1  0  0  0
 34 35  1  0  0  0
 35 36  1  0  0  0
 36 37  1  0  0  0
 37 38  1  0  0  0
  6 11  1  0  0  0
 11 12  1  0  0  0
 12 13  1  0  0  0
 13 14  1  0  0  0
 14 15  1  0  0  0
 15 16  1  0  0  0
 10  1  1  0  0  0
 38 34  1  0  0  0
 16 11  1  0  0  0
  8  3  1  0  0  0
 26 21  1  0  0  0
 19 20  1  0  0  0
M  END
> <minimizedAffinity>
-7.53148

> <CNNscore>
0.3226100802

> <CNNaffinity>
6.3487291336

> <CNN_VS>
2.0481641293

> <CNNaffinity_variance>
0.2759298384

$$$$
[H]c1c(OC([H])([H])C([H])([H])C([H])([H])N2C([H])([H])C([H])([H])C([H])([H])C2([H])[H])c(OC([H])([H])[H])c([H])c2c(N([H])C3([H])C([H])([H])C([H])([H])N(C([H])(C([H])([H])[H])C([H])([H])[H])C([H])([H])C3([H])[H])nc(N3C([H])([H])C([H])([H])C([H])([H])C([H])([H])C3([H])[H])nc12


 38 42  0  0  0  0  0  0  0  0999 V2000
   37.0448  -19.1100   35.5710 C   0  0  0  0  0  0  0  0  0  0  0  0
   35.7817  -18.7390   35.1858 C   0  0  0  0  0  0  0  0  0  0  0  0
   35.2886  -17.4981   35.4972 C   0  0  0  0  0  0  0  0  0  0  0  0
   34.0360  -17.0942   35.1230 C   0  0  0  0  0  0  0  0  0  0  0  0
   33.6676  -15.8332   35.4876 N   0  0  0  0  0  0  0  0  0  0  0  0
   34.4532  -15.0042   36.1734 C   0  0  0  0  0  0  0  0  0  0  0  0
   35.6796  -15.4104   36.5362 N   0  0  0  0  0  0  0  0  0  0  0  0
   36.1291  -16.6307   36.2234 C   0  0  0  0  0  0  0  0  0  0  0  0
   37.4129  -17.0254   36.6079 C   0  0  0  0  0  0  0  0  0  0  0  0
   37.8883  -18.2573   36.2913 C   0  0  0  0  0  0  0  0  0  0  0  0
   34.0524  -13.6860   36.5465 N   0  0  0  0  0  0  0  0  0  0  0  0
   32.6908  -13.2279   36.3687 C   0  0  0  0  0  0  0  0  0  0  0  0
   32.1977  -12.7694   37.7397 C   0  0  0  0  0  0  0  0  0  0  0  0
   33.0376  -11.5927   38.1539 C   0  0  0  0  0  0  0  0  0  0  0  0
   34.2557  -11.4082   37.2697 C   0  0  0  0  0  0  0  0  0  0  0  0
   34.9919  -12.7452   37.1208 C   0  0  0  0  0  0  0  0  0  0  0  0
   38.3129  -20.5186   34.0944 C   0  0  0  0  0  0  0  0  0  0  0  0
   37.5246  -20.3550   35.2527 O   0  0  0  0  0  0  0  0  0  0  0  0
   33.1593  -17.9457   34.4220 N   0  0  0  0  0  0  0  0  0  0  0  0
   32.8523  -17.6865   33.4653 H   0  0  0  0  0  0  0  0  0  0  0  0
   32.6564  -19.1860   34.9808 C   0  0  0  0  0  0  0  0  0  0  0  0
   31.1852  -19.1542   35.3069 C   0  0  0  0  0  0  0  0  0  0  0  0
   30.9039  -20.5083   35.9778 C   0  0  0  0  0  0  0  0  0  0  0  0
   31.0616  -21.5242   34.9650 N   0  0  0  0  0  0  0  0  0  0  0  0
   32.4108  -21.6263   34.5055 C   0  0  0  0  0  0  0  0  0  0  0  0
   32.8886  -20.2930   33.9857 C   0  0  0  0  0  0  0  0  0  0  0  0
   30.5467  -22.7947   35.4499 C   0  0  0  0  0  0  0  0  0  0  0  0
   29.0440  -22.6651   35.5733 C   0  0  0  0  0  0  0  0  0  0  0  0
   30.8405  -23.9101   34.4996 C   0  0  0  0  0  0  0  0  0  0  0  0
   39.1247  -18.6835   36.6350 O   0  0  0  0  0  0  0  0  0  0  0  0
   39.3688  -19.7229   37.5415 C   0  0  0  0  0  0  0  0  0  0  0  0
   40.5264  -20.5950   37.2371 C   0  0  0  0  0  0  0  0  0  0  0  0
   40.3948  -22.0018   37.6770 C   0  0  0  0  0  0  0  0  0  0  0  0
   41.5245  -22.8125   37.3633 N   0  0  0  0  0  0  0  0  0  0  0  0
   41.4687  -24.0395   38.2583 C   0  0  0  0  0  0  0  0  0  0  0  0
   42.6610  -24.7868   37.6996 C   0  0  0  0  0  0  0  0  0  0  0  0
   42.5939  -24.4902   36.2100 C   0  0  0  0  0  0  0  0  0  0  0  0
   41.3504  -23.5864   36.1091 C   0  0  0  0  0  0  0  0  0  0  0  0
 17 18  1  0  0  0
 18  1  1  0  0  0
  1  2  2  0  0  0
  2  3  1  0  0  0
  3  4  2  0  0  0
  4 19  1  0  0  0
 19 21  1  0  0  0
 21 22  1  0  0  0
 22 23  1  0  0  0
 23 24  1  0  0  0
 24 25  1  0  0  0
 25 26  1  0  0  0
 24 27  1  0  0  0
 27 28  1  0  0  0
 27 29  1  0  0  0
  4  5  1  0  0  0
  5  6  2  0  0  0
  6  7  1  0  0  0
  7  8  2  0  0  0
  8  9  1  0  0  0
  9 10  2  0  0  0
 10 30  1  0  0  0
 30 31  1  0  0  0
 31 32  1  0  0  0
 32 33  1  0  0  0
 33 34  1  0  0  0
 34 35  1  0  0  0
 35 36  1  0  0  0
 36 37  1  0  0  0
 37 38  1  0  0  0
  6 11  1  0  0  0
 11 12  1  0  0  0
 12 13  1  0  0  0
 13 14  1  0  0  0
 14 15  1  0  0  0
 15 16  1  0  0  0
 10  1  1  0  0  0
 38 34  1  0  0  0
 16 11  1  0  0  0
  8  3  1  0  0  0
 26 21  1  0  0  0
 19 20  1  0  0  0
M  END
> <minimizedAffinity>
-6.14656

> <CNNscore>
0.3187571466

> <CNNaffinity>
6.3222012520

> <CNN_VS>
2.0152468681

> <CNNaffinity_variance>
0.1957720220

$$$$
[H]c1c(OC([H])([H])C([H])([H])C([H])([H])N2C([H])([H])C([H])([H])C([H])([H])C2([H])[H])c(OC([H])([H])[H])c([H])c2c(N([H])C3([H])C([H])([H])C([H])([H])N(C([H])(C([H])([H])[H])C([H])([H])[H])C([H])([H])C3([H])[H])nc(N3C([H])([H])C([H])([H])C([H])([H])C([H])([H])C3([H])[H])nc12


 38 42  0  0  0  0  0  0  0  0999 V2000
   33.1333  -20.7841   35.7019 C   0  0  0  0  0  0  0  0  0  0  0  0
   34.3188  -20.2061   36.0784 C   0  0  0  0  0  0  0  0  0  0  0  0
   34.4553  -18.8422   36.1133 C   0  0  0  0  0  0  0  0  0  0  0  0
   35.6214  -18.2335   36.4899 C   0  0  0  0  0  0  0  0  0  0  0  0
   35.6253  -16.8702   36.4902 N   0  0  0  0  0  0  0  0  0  0  0  0
   34.5723  -16.1293   36.1480 C   0  0  0  0  0  0  0  0  0  0  0  0
   33.4336  -16.7361   35.7794 N   0  0  0  0  0  0  0  0  0  0  0  0
   33.3345  -18.0697   35.7485 C   0  0  0  0  0  0  0  0  0  0  0  0
   32.1346  -18.6753   35.3673 C   0  0  0  0  0  0  0  0  0  0  0  0
   32.0139  -20.0275   35.3386 C   0  0  0  0  0  0  0  0  0  0  0  0
   34.5926  -14.7021   36.1546 N   0  0  0  0  0  0  0  0  0  0  0  0
   33.3853  -13.9251   35.9689 C   0  0  0  0  0  0  0  0  0  0  0  0
   33.2601  -13.0086   37.1843 C   0  0  0  0  0  0  0  0  0  0  0  0
   34.4317  -12.0658   37.1646 C   0  0  0  0  0  0  0  0  0  0  0  0
   35.4933  -12.4792   36.1636 C   0  0  0  0  0  0  0  0  0  0  0  0
   35.8244  -13.9652   36.3474 C   0  0  0  0  0  0  0  0  0  0  0  0
   33.6795  -22.9272   36.6408 C   0  0  0  0  0  0  0  0  0  0  0  0
   33.0117  -22.1500   35.6713 O   0  0  0  0  0  0  0  0  0  0  0  0
   36.7694  -18.9750   36.8327 N   0  0  0  0  0  0  0  0  0  0  0  0
   36.8932  -19.3016   37.8097 H   0  0  0  0  0  0  0  0  0  0  0  0
   37.8033  -19.3090   35.8719 C   0  0  0  0  0  0  0  0  0  0  0  0
   37.7450  -18.4923   34.6065 C   0  0  0  0  0  0  0  0  0  0  0  0
   38.8421  -19.0847   33.7076 C   0  0  0  0  0  0  0  0  0  0  0  0
   40.1094  -18.7703   34.3221 N   0  0  0  0  0  0  0  0  0  0  0  0
   40.2812  -19.4301   35.5779 C   0  0  0  0  0  0  0  0  0  0  0  0
   39.1483  -19.0813   36.5112 C   0  0  0  0  0  0  0  0  0  0  0  0
   41.1951  -19.0540   33.3972 C   0  0  0  0  0  0  0  0  0  0  0  0
   42.4737  -18.5300   34.0143 C   0  0  0  0  0  0  0  0  0  0  0  0
   41.3575  -20.5217   33.1675 C   0  0  0  0  0  0  0  0  0  0  0  0
   30.8732  -20.6606   34.9830 O   0  0  0  0  0  0  0  0  0  0  0  0
   29.6000  -20.2869   35.4310 C   0  0  0  0  0  0  0  0  0  0  0  0
   28.9083  -21.2558   36.3118 C   0  0  0  0  0  0  0  0  0  0  0  0
   28.4348  -22.4913   35.6489 C   0  0  0  0  0  0  0  0  0  0  0  0
   29.0267  -23.6833   36.1595 N   0  0  0  0  0  0  0  0  0  0  0  0
   30.0897  -24.1263   35.1678 C   0  0  0  0  0  0  0  0  0  0  0  0
   30.6437  -25.3075   35.9362 C   0  0  0  0  0  0  0  0  0  0  0  0
   30.5944  -24.8394   37.3818 C   0  0  0  0  0  0  0  0  0  0  0  0
   29.9988  -23.4248   37.2506 C   0  0  0  0  0  0  0  0  0  0  0  0
 17 18  1  0  0  0
 18  1  1  0  0  0
  1  2  2  0  0  0
  2  3  1  0  0  0
  3  4  2  0  0  0
  4 19  1  0  0  0
 19 21  1  0  0  0
 21 22  1  0  0  0
 22 23  1  0  0  0
 23 24  1  0  0  0
 24 25  1  0  0  0
 25 26  1  0  0  0
 24 27  1  0  0  0
 27 28  1  0  0  0
 27 29  1  0  0  0
  4  5  1  0  0  0
  5  6  2  0  0  0
  6  7  1  0  0  0
  7  8  2  0  0  0
  8  9  1  0  0  0
  9 10  2  0  0  0
 10 30  1  0  0  0
 30 31  1  0  0  0
 31 32  1  0  0  0
 32 33  1  0  0  0
 33 34  1  0  0  0
 34 35  1  0  0  0
 35 36  1  0  0  0
 36 37  1  0  0  0
 37 38  1  0  0  0
  6 11  1  0  0  0
 11 12  1  0  0  0
 12 13  1  0  0  0
 13 14  1  0  0  0
 14 15  1  0  0  0
 15 16  1  0  0  0
 10  1  1  0  0  0
 38 34  1  0  0  0
 16 11  1  0  0  0
  8  3  1  0  0  0
 26 21  1  0  0  0
 19 20  1  0  0  0
M  END
> <minimizedAffinity>
-7.02704

> <CNNscore>
0.2400978953

> <CNNaffinity>
6.3598937988

> <CNN_VS>
1.5269970894

> <CNNaffinity_variance>
0.2841846049

$$$$
[H]c1c(OC([H])([H])C([H])([H])C([H])([H])N2C([H])([H])C([H])([H])C([H])([H])C2([H])[H])c(OC([H])([H])[H])c([H])c2c(N([H])C3([H])C([H])([H])C([H])([H])N(C([H])(C([H])([H])[H])C([H])([H])[H])C([H])([H])C3([H])[H])nc(N3C([H])([H])C([H])([H])C([H])([H])C([H])([H])C3([H])[H])nc12


 38 42  0  0  0  0  0  0  0  0999 V2000
   36.8769  -19.8675   36.1250 C   0  0  0  0  0  0  0  0  0  0  0  0
   35.6655  -19.4291   35.6540 C   0  0  0  0  0  0  0  0  0  0  0  0
   35.2900  -18.1179   35.7949 C   0  0  0  0  0  0  0  0  0  0  0  0
   34.0921  -17.6466   35.3313 C   0  0  0  0  0  0  0  0  0  0  0  0
   33.8414  -16.3209   35.5267 N   0  0  0  0  0  0  0  0  0  0  0  0
   34.6892  -15.4912   36.1334 C   0  0  0  0  0  0  0  0  0  0  0  0
   35.8611  -15.9637   36.5851 N   0  0  0  0  0  0  0  0  0  0  0  0
   36.1952  -17.2506   36.4388 C   0  0  0  0  0  0  0  0  0  0  0  0
   37.4250  -17.7144   36.9126 C   0  0  0  0  0  0  0  0  0  0  0  0
   37.7838  -19.0156   36.7648 C   0  0  0  0  0  0  0  0  0  0  0  0
   34.4118  -14.1049   36.3293 N   0  0  0  0  0  0  0  0  0  0  0  0
   33.0688  -13.5764   36.2169 C   0  0  0  0  0  0  0  0  0  0  0  0
   32.7583  -12.8779   37.5393 C   0  0  0  0  0  0  0  0  0  0  0  0
   33.7078  -11.7195   37.6747 C   0  0  0  0  0  0  0  0  0  0  0  0
   34.8299  -11.7658   36.6556 C   0  0  0  0  0  0  0  0  0  0  0  0
   35.4636  -13.1622   36.6496 C   0  0  0  0  0  0  0  0  0  0  0  0
   36.8547  -22.1210   36.9576 C   0  0  0  0  0  0  0  0  0  0  0  0
   37.2389  -21.1822   35.9773 O   0  0  0  0  0  0  0  0  0  0  0  0
   33.1518  -18.4917   34.7092 N   0  0  0  0  0  0  0  0  0  0  0  0
   33.2312  -18.6823   33.6924 H   0  0  0  0  0  0  0  0  0  0  0  0
   32.0611  -19.1178   35.4315 C   0  0  0  0  0  0  0  0  0  0  0  0
   30.7872  -19.2288   34.6335 C   0  0  0  0  0  0  0  0  0  0  0  0
   29.7584  -19.8081   35.6177 C   0  0  0  0  0  0  0  0  0  0  0  0
   30.1630  -21.1630   35.9055 N   0  0  0  0  0  0  0  0  0  0  0  0
   31.4041  -21.2195   36.6114 C   0  0  0  0  0  0  0  0  0  0  0  0
   32.4820  -20.5077   35.8320 C   0  0  0  0  0  0  0  0  0  0  0  0
   29.0979  -21.8625   36.6062 C   0  0  0  0  0  0  0  0  0  0  0  0
   28.1603  -20.8203   37.1760 C   0  0  0  0  0  0  0  0  0  0  0  0
   28.3131  -22.7403   35.6859 C   0  0  0  0  0  0  0  0  0  0  0  0
   38.9641  -19.5111   37.2004 O   0  0  0  0  0  0  0  0  0  0  0  0
   40.2080  -18.9384   36.9066 C   0  0  0  0  0  0  0  0  0  0  0  0
   40.9675  -19.5619   35.7986 C   0  0  0  0  0  0  0  0  0  0  0  0
   40.2090  -19.7659   34.5444 C   0  0  0  0  0  0  0  0  0  0  0  0
   40.3454  -21.0735   33.9937 N   0  0  0  0  0  0  0  0  0  0  0  0
   41.7793  -21.2187   33.5115 C   0  0  0  0  0  0  0  0  0  0  0  0
   41.7309  -22.6684   33.0776 C   0  0  0  0  0  0  0  0  0  0  0  0
   40.8351  -23.3168   34.1210 C   0  0  0  0  0  0  0  0  0  0  0  0
   40.4735  -22.1273   35.0306 C   0  0  0  0  0  0  0  0  0  0  0  0
 17 18  1  0  0  0
 18  1  1  0  0  0
  1  2  2  0  0  0
  2  3  1  0  0  0
  3  4  2  0  0  0
  4 19  1  0  0  0
 19 21  1  0  0  0
 21 22  1  0  0  0
 22 23  1  0  0  0
 23 24  1  0  0  0
 24 25  1  0  0  0
 25 26  1  0  0  0
 24 27  1  0  0  0
 27 28  1  0  0  0
 27 29  1  0  0  0
  4  5  1  0  0  0
  5  6  2  0  0  0
  6  7  1  0  0  0
  7  8  2  0  0  0
  8  9  1  0  0  0
  9 10  2  0  0  0
 10 30  1  0  0  0
 30 31  1  0  0  0
 31 32  1  0  0  0
 32 33  1  0  0  0
 33 34  1  0  0  0
 34 35  1  0  0  0
 35 36  1  0  0  0
 36 37  1  0  0  0
 37 38  1  0  0  0
  6 11  1  0  0  0
 11 12  1  0  0  0
 12 13  1  0  0  0
 13 14  1  0  0  0
 14 15  1  0  0  0
 15 16  1  0  0  0
 10  1  1  0  0  0
 38 34  1  0  0  0
 16 11  1  0  0  0
  8  3  1  0  0  0
 26 21  1  0  0  0
 19 20  1  0  0  0
M  END
> <minimizedAffinity>
-6.84008

> <CNNscore>
0.2293769866

> <CNNaffinity>
6.2442898750

> <CNN_VS>
1.4322963953

> <CNNaffinity_variance>
0.2067930698

$$$$
[H]c1c(OC([H])([H])C([H])([H])C([H])([H])N2C([H])([H])C([H])([H])C([H])([H])C2([H])[H])c(OC([H])([H])[H])c([H])c2c(N([H])C3([H])C([H])([H])C([H])([H])N(C([H])(C([H])([H])[H])C([H])([H])[H])C([H])([H])C3([H])[H])nc(N3C([H])([H])C([H])([H])C([H])([H])C([H])([H])C3([H])[H])nc12


 38 42  0  0  0  0  0  0  0  0999 V2000
   38.7343  -20.9001   35.9543 C   0  0  0  0  0  0  0  0  0  0  0  0
   37.3798  -20.7151   35.8411 C   0  0  0  0  0  0  0  0  0  0  0  0
   36.8162  -19.4881   36.0793 C   0  0  0  0  0  0  0  0  0  0  0  0
   35.4703  -19.2680   35.9693 C   0  0  0  0  0  0  0  0  0  0  0  0
   35.0366  -18.0010   36.2248 N   0  0  0  0  0  0  0  0  0  0  0  0
   35.8453  -16.9994   36.5680 C   0  0  0  0  0  0  0  0  0  0  0  0
   37.1637  -17.2261   36.6739 N   0  0  0  0  0  0  0  0  0  0  0  0
   37.6822  -18.4371   36.4421 C   0  0  0  0  0  0  0  0  0  0  0  0
   39.0595  -18.6435   36.5530 C   0  0  0  0  0  0  0  0  0  0  0  0
   39.6036  -19.8642   36.3128 C   0  0  0  0  0  0  0  0  0  0  0  0
   35.3751  -15.6778   36.8314 N   0  0  0  0  0  0  0  0  0  0  0  0
   36.1062  -14.7689   37.6887 C   0  0  0  0  0  0  0  0  0  0  0  0
   36.3825  -13.5126   36.8650 C   0  0  0  0  0  0  0  0  0  0  0  0
   35.0562  -12.8835   36.5380 C   0  0  0  0  0  0  0  0  0  0  0  0
   33.8868  -13.7970   36.8510 C   0  0  0  0  0  0  0  0  0  0  0  0
   34.1424  -15.1853   36.2520 C   0  0  0  0  0  0  0  0  0  0  0  0
   39.0757  -22.7528   34.4632 C   0  0  0  0  0  0  0  0  0  0  0  0
   39.2839  -22.1335   35.7135 O   0  0  0  0  0  0  0  0  0  0  0  0
   34.5731  -20.3024   35.6372 N   0  0  0  0  0  0  0  0  0  0  0  0
   34.2376  -20.3927   34.6595 H   0  0  0  0  0  0  0  0  0  0  0  0
   34.0872  -21.2619   36.6102 C   0  0  0  0  0  0  0  0  0  0  0  0
   34.0009  -20.7161   38.0125 C   0  0  0  0  0  0  0  0  0  0  0  0
   33.5788  -21.9169   38.8743 C   0  0  0  0  0  0  0  0  0  0  0  0
   32.2271  -22.2544   38.4984 N   0  0  0  0  0  0  0  0  0  0  0  0
   32.1416  -22.7315   37.1542 C   0  0  0  0  0  0  0  0  0  0  0  0
   32.7088  -21.7101   36.1996 C   0  0  0  0  0  0  0  0  0  0  0  0
   31.6646  -23.1951   39.4541 C   0  0  0  0  0  0  0  0  0  0  0  0
   31.5606  -24.5402   38.7686 C   0  0  0  0  0  0  0  0  0  0  0  0
   32.5386  -23.3524   40.6561 C   0  0  0  0  0  0  0  0  0  0  0  0
   40.9298  -20.1128   36.4010 O   0  0  0  0  0  0  0  0  0  0  0  0
   41.7452  -20.4030   35.2998 C   0  0  0  0  0  0  0  0  0  0  0  0
   42.8600  -19.4612   35.0477 C   0  0  0  0  0  0  0  0  0  0  0  0
   42.4772  -18.1777   34.4184 C   0  0  0  0  0  0  0  0  0  0  0  0
   43.0469  -17.0333   35.0489 N   0  0  0  0  0  0  0  0  0  0  0  0
   43.2792  -17.3846   36.5091 C   0  0  0  0  0  0  0  0  0  0  0  0
   43.9647  -16.1076   36.9471 C   0  0  0  0  0  0  0  0  0  0  0  0
   44.8133  -15.7343   35.7422 C   0  0  0  0  0  0  0  0  0  0  0  0
   44.4903  -16.8656   34.7477 C   0  0  0  0  0  0  0  0  0  0  0  0
 17 18  1  0  0  0
 18  1  1  0  0  0
  1  2  2  0  0  0
  2  3  1  0  0  0
  3  4  2  0  0  0
  4 19  1  0  0  0
 19 21  1  0  0  0
 21 22  1  0  0  0
 22 23  1  0  0  0
 23 24  1  0  0  0
 24 25  1  0  0  0
 25 26  1  0  0  0
 24 27  1  0  0  0
 27 28  1  0  0  0
 27 29  1  0  0  0
  4  5  1  0  0  0
  5  6  2  0  0  0
  6  7  1  0  0  0
  7  8  2  0  0  0
  8  9  1  0  0  0
  9 10  2  0  0  0
 10 30  1  0  0  0
 30 31  1  0  0  0
 31 32  1  0  0  0
 32 33  1  0  0  0
 33 34  1  0  0  0
 34 35  1  0  0  0
 35 36  1  0  0  0
 36 37  1  0  0  0
 37 38  1  0  0  0
  6 11  1  0  0  0
 11 12  1  0  0  0
 12 13  1  0  0  0
 13 14  1  0  0  0
 14 15  1  0  0  0
 15 16  1  0  0  0
 10  1  1  0  0  0
 38 34  1  0  0  0
 16 11  1  0  0  0
  8  3  1  0  0  0
 26 21  1  0  0  0
 19 20  1  0  0  0
M  END
> <minimizedAffinity>
-6.24206

> <CNNscore>
0.2143501341

> <CNNaffinity>
6.0051460266

> <CNN_VS>
1.2872039080

> <CNNaffinity_variance>
0.2701765299

$$$$
[H]C1=C(c2nc3c([H])c(OC([H])([H])C([H])([H])C([H])([H])N4C([H])([H])C([H])([H])C([H])([H])C4([H])[H])c(OC([H])([H])[H])c([H])c3c(N([H])C3([H])C([H])([H])C([H])([H])N(C([H])([H])[H])C([H])([H])C3([H])[H])c2[H])C([H])([H])C([H])([H])C([H])([H])C1([H])[H]


 36 40  0  0  0  0  0  0  0  0999 V2000
   35.9451  -14.4145   36.3515 C   0  0  0  0  0  0  0  0  0  0  0  0
   36.3871  -15.7311   36.1394 C   0  0  0  0  0  0  0  0  0  0  0  0
   35.5499  -16.7719   35.8410 C   0  0  0  0  0  0  0  0  0  0  0  0
   36.0020  -18.0521   35.6421 C   0  0  0  0  0  0  0  0  0  0  0  0
   35.0459  -19.0220   35.3493 C   0  0  0  0  0  0  0  0  0  0  0  0
   33.7021  -18.7381   35.2570 C   0  0  0  0  0  0  0  0  0  0  0  0
   33.3508  -17.4642   35.4655 N   0  0  0  0  0  0  0  0  0  0  0  0
   34.1934  -16.4596   35.7530 C   0  0  0  0  0  0  0  0  0  0  0  0
   33.7558  -15.1703   35.9596 C   0  0  0  0  0  0  0  0  0  0  0  0
   34.6052  -14.1302   36.2596 C   0  0  0  0  0  0  0  0  0  0  0  0
   32.6725  -19.7150   34.9561 C   0  0  0  0  0  0  0  0  0  0  0  0
   32.9408  -21.0103   35.0059 C   0  0  0  0  0  0  0  0  0  0  0  0
   31.9516  -22.0614   34.7145 C   0  0  0  0  0  0  0  0  0  0  0  0
   30.5476  -21.6594   35.0463 C   0  0  0  0  0  0  0  0  0  0  0  0
   30.3676  -20.2308   35.4303 C   0  0  0  0  0  0  0  0  0  0  0  0
   31.2857  -19.3521   34.5792 C   0  0  0  0  0  0  0  0  0  0  0  0
   37.9224  -13.4623   37.4889 C   0  0  0  0  0  0  0  0  0  0  0  0
   36.8117  -13.3884   36.6508 O   0  0  0  0  0  0  0  0  0  0  0  0
   37.3658  -18.3643   35.7381 N   0  0  0  0  0  0  0  0  0  0  0  0
   37.9461  -17.9214   36.4728 H   0  0  0  0  0  0  0  0  0  0  0  0
   38.0576  -19.2931   34.8587 C   0  0  0  0  0  0  0  0  0  0  0  0
   39.1570  -19.9590   35.6617 C   0  0  0  0  0  0  0  0  0  0  0  0
   40.3276  -19.0360   35.9017 C   0  0  0  0  0  0  0  0  0  0  0  0
   41.0182  -18.8689   34.6338 N   0  0  0  0  0  0  0  0  0  0  0  0
   42.1547  -19.7482   34.6028 C   0  0  0  0  0  0  0  0  0  0  0  0
   40.1732  -19.1622   33.5147 C   0  0  0  0  0  0  0  0  0  0  0  0
   38.7589  -18.5961   33.7064 C   0  0  0  0  0  0  0  0  0  0  0  0
   34.0646  -12.8617   36.4516 O   0  0  0  0  0  0  0  0  0  0  0  0
   33.8047  -12.3720   37.7729 C   0  0  0  0  0  0  0  0  0  0  0  0
   32.3776  -12.7536   38.1344 C   0  0  0  0  0  0  0  0  0  0  0  0
   31.4591  -11.7336   37.5112 C   0  0  0  0  0  0  0  0  0  0  0  0
   30.0802  -12.0002   37.6702 N   0  0  0  0  0  0  0  0  0  0  0  0
   29.1676  -10.9338   37.5185 C   0  0  0  0  0  0  0  0  0  0  0  0
   28.9096  -10.4024   38.8876 C   0  0  0  0  0  0  0  0  0  0  0  0
   28.9856  -11.6479   39.7430 C   0  0  0  0  0  0  0  0  0  0  0  0
   29.8412  -12.5832   38.9535 C   0  0  0  0  0  0  0  0  0  0  0  0
 17 18  1  0  0  0
 18  1  1  0  0  0
  1  2  2  0  0  0
  2  3  1  0  0  0
  3  4  2  0  0  0
  4 19  1  0  0  0
 19 21  1  0  0  0
 21 22  1  0  0  0
 22 23  1  0  0  0
 23 24  1  0  0  0
 24 25  1  0  0  0
 24 26  1  0  0  0
 26 27  1  0  0  0
  4  5  1  0  0  0
  5  6  2  0  0  0
  6  7  1  0  0  0
  7  8  2  0  0  0
  8  9  1  0  0  0
  9 10  2  0  0  0
 10 28  1  0  0  0
 28 29  1  0  0  0
 29 30  1  0  0  0
 30 31  1  0  0  0
 31 32  1  0  0  0
 32 33  1  0  0  0
 33 34  1  0  0  0
 34 35  1  0  0  0
 35 36  1  0  0  0
  6 11  1  0  0  0
 11 12  2  0  0  0
 12 13  1  0  0  0
 13 14  1  0  0  0
 14 15  1  0  0  0
 15 16  1  0  0  0
 10  1  1  0  0  0
 36 32  1  0  0  0
 16 11  1  0  0  0
  8  3  1  0  0  0
 27 21  1  0  0  0
 19 20  1  0  0  0
M  END
> <minimizedAffinity>
-8.50874

> <CNNscore>
0.8107223511

> <CNNaffinity>
7.4027681351

> <CNN_VS>
6.0015897751

> <CNNaffinity_variance>
0.0232606828

$$$$
[H]C1=C(c2nc3c([H])c(OC([H])([H])C([H])([H])C([H])([H])N4C([H])([H])C([H])([H])C([H])([H])C4([H])[H])c(OC([H])([H])[H])c([H])c3c(N([H])C3([H])C([H])([H])C([H])([H])N(C([H])([H])[H])C([H])([H])C3([H])[H])c2[H])C([H])([H])C([H])([H])C([H])([H])C1([H])[H]


 36 40  0  0  0  0  0  0  0  0999 V2000
   36.1603  -14.3582   36.7231 C   0  0  0  0  0  0  0  0  0  0  0  0
   36.6906  -15.5938   36.3159 C   0  0  0  0  0  0  0  0  0  0  0  0
   35.9204  -16.6625   35.9443 C   0  0  0  0  0  0  0  0  0  0  0  0
   36.4587  -17.8629   35.5540 C   0  0  0  0  0  0  0  0  0  0  0  0
   35.5651  -18.8729   35.2050 C   0  0  0  0  0  0  0  0  0  0  0  0
   34.1995  -18.7031   35.2401 C   0  0  0  0  0  0  0  0  0  0  0  0
   33.7627  -17.5010   35.6323 N   0  0  0  0  0  0  0  0  0  0  0  0
   34.5403  -16.4663   35.9881 C   0  0  0  0  0  0  0  0  0  0  0  0
   34.0162  -15.2565   36.3862 C   0  0  0  0  0  0  0  0  0  0  0  0
   34.7986  -14.1877   36.7585 C   0  0  0  0  0  0  0  0  0  0  0  0
   33.2328  -19.7257   34.8871 C   0  0  0  0  0  0  0  0  0  0  0  0
   33.3717  -20.9639   35.3342 C   0  0  0  0  0  0  0  0  0  0  0  0
   32.4348  -22.0557   35.0207 C   0  0  0  0  0  0  0  0  0  0  0  0
   31.0317  -21.5834   34.7947 C   0  0  0  0  0  0  0  0  0  0  0  0
   30.8582  -20.1042   34.7407 C   0  0  0  0  0  0  0  0  0  0  0  0
   32.0538  -19.4741   34.0247 C   0  0  0  0  0  0  0  0  0  0  0  0
   38.2414  -13.3846   37.6350 C   0  0  0  0  0  0  0  0  0  0  0  0
   36.9609  -13.3015   37.0919 O   0  0  0  0  0  0  0  0  0  0  0  0
   37.8467  -18.0594   35.5177 N   0  0  0  0  0  0  0  0  0  0  0  0
   38.4732  -17.4111   36.0275 H   0  0  0  0  0  0  0  0  0  0  0  0
   38.5029  -19.1382   34.7964 C   0  0  0  0  0  0  0  0  0  0  0  0
   39.6009  -19.6879   35.6848 C   0  0  0  0  0  0  0  0  0  0  0  0
   40.7955  -18.7668   35.7520 C   0  0  0  0  0  0  0  0  0  0  0  0
   41.4678  -18.8301   34.4650 N   0  0  0  0  0  0  0  0  0  0  0  0
   42.5841  -19.7299   34.5662 C   0  0  0  0  0  0  0  0  0  0  0  0
   40.5976  -19.2848   33.4218 C   0  0  0  0  0  0  0  0  0  0  0  0
   39.1996  -18.6602   33.5349 C   0  0  0  0  0  0  0  0  0  0  0  0
   34.1729  -13.0060   37.1463 O   0  0  0  0  0  0  0  0  0  0  0  0
   32.9772  -13.0390   37.9354 C   0  0  0  0  0  0  0  0  0  0  0  0
   32.7315  -11.6329   38.4602 C   0  0  0  0  0  0  0  0  0  0  0  0
   32.6960  -10.7016   37.2754 C   0  0  0  0  0  0  0  0  0  0  0  0
   33.1337   -9.3843   37.5418 N   0  0  0  0  0  0  0  0  0  0  0  0
   32.3244   -8.3084   37.1171 C   0  0  0  0  0  0  0  0  0  0  0  0
   32.8493   -7.8861   35.7868 C   0  0  0  0  0  0  0  0  0  0  0  0
   34.3353   -8.1324   35.9270 C   0  0  0  0  0  0  0  0  0  0  0  0
   34.4349   -9.1812   36.9855 C   0  0  0  0  0  0  0  0  0  0  0  0
 17 18  1  0  0  0
 18  1  1  0  0  0
  1  2  2  0  0  0
  2  3  1  0  0  0
  3  4  2  0  0  0
  4 19  1  0  0  0
 19 21  1  0  0  0
 21 22  1  0  0  0
 22 23  1  0  0  0
 23 24  1  0  0  0
 24 25  1  0  0  0
 24 26  1  0  0  0
 26 27  1  0  0  0
  4  5  1  0  0  0
  5  6  2  0  0  0
  6  7  1  0  0  0
  7  8  2  0  0  0
  8  9  1  0  0  0
  9 10  2  0  0  0
 10 28  1  0  0  0
 28 29  1  0  0  0
 29 30  1  0  0  0
 30 31  1  0  0  0
 31 32  1  0  0  0
 32 33  1  0  0  0
 33 34  1  0  0  0
 34 35  1  0  0  0
 35 36  1  0  0  0
  6 11  1  0  0  0
 11 12  2  0  0  0
 12 13  1  0  0  0
 13 14  1  0  0  0
 14 15  1  0  0  0
 15 16  1  0  0  0
 10  1  1  0  0  0
 36 32  1  0  0  0
 16 11  1  0  0  0
  8  3  1  0  0  0
 27 21  1  0  0  0
 19 20  1  0  0  0
M  END
> <minimizedAffinity>
-7.85663

> <CNNscore>
0.7768065333

> <CNNaffinity>
7.5598731041

> <CNN_VS>
5.8725585938

> <CNNaffinity_variance>
0.0369453020

$$$$
[H]C1=C(c2nc3c([H])c(OC([H])([H])C([H])([H])C([H])([H])N4C([H])([H])C([H])([H])C([H])([H])C4([H])[H])c(OC([H])([H])[H])c([H])c3c(N([H])C3([H])C([H])([H])C([H])([H])N(C([H])([H])[H])C([H])([H])C3([H])[H])c2[H])C([H])([H])C([H])([H])C([H])([H])C1([H])[H]


 36 40  0  0  0  0  0  0  0  0999 V2000
   32.4772  -20.7424   34.3570 C   0  0  0  0  0  0  0  0  0  0  0  0
   33.7946  -20.2565   34.4017 C   0  0  0  0  0  0  0  0  0  0  0  0
   34.1265  -19.0095   34.8579 C   0  0  0  0  0  0  0  0  0  0  0  0
   35.4200  -18.5524   34.8888 C   0  0  0  0  0  0  0  0  0  0  0  0
   35.6231  -17.2617   35.3719 C   0  0  0  0  0  0  0  0  0  0  0  0
   34.5926  -16.4587   35.8055 C   0  0  0  0  0  0  0  0  0  0  0  0
   33.3645  -16.9853   35.7400 N   0  0  0  0  0  0  0  0  0  0  0  0
   33.0657  -18.2147   35.2916 C   0  0  0  0  0  0  0  0  0  0  0  0
   31.7727  -18.6872   35.2501 C   0  0  0  0  0  0  0  0  0  0  0  0
   31.4486  -19.9425   34.7892 C   0  0  0  0  0  0  0  0  0  0  0  0
   34.7571  -15.1101   36.3143 C   0  0  0  0  0  0  0  0  0  0  0  0
   35.9156  -14.4819   36.1891 C   0  0  0  0  0  0  0  0  0  0  0  0
   36.1609  -13.1150   36.6787 C   0  0  0  0  0  0  0  0  0  0  0  0
   34.9341  -12.2561   36.6720 C   0  0  0  0  0  0  0  0  0  0  0  0
   33.6617  -12.9649   36.3564 C   0  0  0  0  0  0  0  0  0  0  0  0
   33.6780  -14.3549   36.9942 C   0  0  0  0  0  0  0  0  0  0  0  0
   31.8787  -23.1205   34.6679 C   0  0  0  0  0  0  0  0  0  0  0  0
   32.1745  -22.0016   33.8919 O   0  0  0  0  0  0  0  0  0  0  0  0
   36.4838  -19.3514   34.4455 N   0  0  0  0  0  0  0  0  0  0  0  0
   36.2986  -20.3061   34.0891 H   0  0  0  0  0  0  0  0  0  0  0  0
   37.8769  -18.9343   34.4449 C   0  0  0  0  0  0  0  0  0  0  0  0
   38.6541  -19.9181   33.5935 C   0  0  0  0  0  0  0  0  0  0  0  0
   38.8643  -21.2385   34.2951 C   0  0  0  0  0  0  0  0  0  0  0  0
   39.8309  -21.0185   35.3579 N   0  0  0  0  0  0  0  0  0  0  0  0
   41.1273  -21.4409   34.9036 C   0  0  0  0  0  0  0  0  0  0  0  0
   39.9012  -19.6420   35.7488 C   0  0  0  0  0  0  0  0  0  0  0  0
   38.5084  -19.0005   35.8241 C   0  0  0  0  0  0  0  0  0  0  0  0
   30.1106  -20.3272   34.7866 O   0  0  0  0  0  0  0  0  0  0  0  0
   29.2668  -20.0392   35.9083 C   0  0  0  0  0  0  0  0  0  0  0  0
   29.1264  -21.3174   36.7206 C   0  0  0  0  0  0  0  0  0  0  0  0
   28.5630  -22.3787   35.8105 C   0  0  0  0  0  0  0  0  0  0  0  0
   28.1396  -23.5582   36.4641 N   0  0  0  0  0  0  0  0  0  0  0  0
   28.7662  -23.9161   37.6775 C   0  0  0  0  0  0  0  0  0  0  0  0
   29.8565  -24.8697   37.3233 C   0  0  0  0  0  0  0  0  0  0  0  0
   29.2687  -25.6183   36.1473 C   0  0  0  0  0  0  0  0  0  0  0  0
   28.2593  -24.6752   35.5798 C   0  0  0  0  0  0  0  0  0  0  0  0
 17 18  1  0  0  0
 18  1  1  0  0  0
  1  2  2  0  0  0
  2  3  1  0  0  0
  3  4  2  0  0  0
  4 19  1  0  0  0
 19 21  1  0  0  0
 21 22  1  0  0  0
 22 23  1  0  0  0
 23 24  1  0  0  0
 24 25  1  0  0  0
 24 26  1  0  0  0
 26 27  1  0  0  0
  4  5  1  0  0  0
  5  6  2  0  0  0
  6  7  1  0  0  0
  7  8  2  0  0  0
  8  9  1  0  0  0
  9 10  2  0  0  0
 10 28  1  0  0  0
 28 29  1  0  0  0
 29 30  1  0  0  0
 30 31  1  0  0  0
 31 32  1  0  0  0
 32 33  1  0  0  0
 33 34  1  0  0  0
 34 35  1  0  0  0
 35 36  1  0  0  0
  6 11  1  0  0  0
 11 12  2  0  0  0
 12 13  1  0  0  0
 13 14  1  0  0  0
 14 15  1  0  0  0
 15 16  1  0  0  0
 10  1  1  0  0  0
 36 32  1  0  0  0
 16 11  1  0  0  0
  8  3  1  0  0  0
 27 21  1  0  0  0
 19 20  1  0  0  0
M  END
> <minimizedAffinity>
-6.85789

> <CNNscore>
0.6219115257

> <CNNaffinity>
6.5749764442

> <CNN_VS>
4.0890536308

> <CNNaffinity_variance>
0.1209220737

$$$$
[H]C1=C(c2nc3c([H])c(OC([H])([H])C([H])([H])C([H])([H])N4C([H])([H])C([H])([H])C([H])([H])C4([H])[H])c(OC([H])([H])[H])c([H])c3c(N([H])C3([H])C([H])([H])C([H])([H])N(C([H])([H])[H])C([H])([H])C3([H])[H])c2[H])C([H])([H])C([H])([H])C([H])([H])C1([H])[H]


 36 40  0  0  0  0  0  0  0  0999 V2000
   37.0299  -21.4693   38.2501 C   0  0  0  0  0  0  0  0  0  0  0  0
   37.7105  -20.5911   37.3903 C   0  0  0  0  0  0  0  0  0  0  0  0
   37.2601  -19.3370   37.0778 C   0  0  0  0  0  0  0  0  0  0  0  0
   37.9383  -18.4962   36.2316 C   0  0  0  0  0  0  0  0  0  0  0  0
   37.3700  -17.2472   35.9917 C   0  0  0  0  0  0  0  0  0  0  0  0
   36.1835  -16.8473   36.5638 C   0  0  0  0  0  0  0  0  0  0  0  0
   35.5909  -17.7303   37.3755 N   0  0  0  0  0  0  0  0  0  0  0  0
   36.0563  -18.9546   37.6694 C   0  0  0  0  0  0  0  0  0  0  0  0
   35.3860  -19.8121   38.5132 C   0  0  0  0  0  0  0  0  0  0  0  0
   35.8465  -21.0716   38.8212 C   0  0  0  0  0  0  0  0  0  0  0  0
   35.5550  -15.5587   36.3418 C   0  0  0  0  0  0  0  0  0  0  0  0
   34.2364  -15.4551   36.2889 C   0  0  0  0  0  0  0  0  0  0  0  0
   33.5249  -14.1851   36.0674 C   0  0  0  0  0  0  0  0  0  0  0  0
   34.2655  -12.9938   36.5922 C   0  0  0  0  0  0  0  0  0  0  0  0
   35.6505  -13.2647   37.0709 C   0  0  0  0  0  0  0  0  0  0  0  0
   36.3142  -14.2987   36.1602 C   0  0  0  0  0  0  0  0  0  0  0  0
   38.1177  -23.6078   37.6554 C   0  0  0  0  0  0  0  0  0  0  0  0
   37.5079  -22.7255   38.5449 O   0  0  0  0  0  0  0  0  0  0  0  0
   39.1450  -18.8862   35.6329 N   0  0  0  0  0  0  0  0  0  0  0  0
   40.0166  -18.9035   36.1920 H   0  0  0  0  0  0  0  0  0  0  0  0
   39.2778  -19.2830   34.2402 C   0  0  0  0  0  0  0  0  0  0  0  0
   39.2623  -20.7976   34.1872 C   0  0  0  0  0  0  0  0  0  0  0  0
   40.5613  -21.3989   34.6680 C   0  0  0  0  0  0  0  0  0  0  0  0
   41.5679  -21.1293   33.6549 N   0  0  0  0  0  0  0  0  0  0  0  0
   41.7255  -22.2972   32.8322 C   0  0  0  0  0  0  0  0  0  0  0  0
   41.2135  -20.0187   32.8221 C   0  0  0  0  0  0  0  0  0  0  0  0
   40.6079  -18.8673   33.6373 C   0  0  0  0  0  0  0  0  0  0  0  0
   35.0951  -21.8638   39.6849 O   0  0  0  0  0  0  0  0  0  0  0  0
   33.7401  -21.5187   39.9981 C   0  0  0  0  0  0  0  0  0  0  0  0
   32.9645  -22.8139   40.1819 C   0  0  0  0  0  0  0  0  0  0  0  0
   33.6174  -23.8648   39.3209 C   0  0  0  0  0  0  0  0  0  0  0  0
   34.0059  -25.0378   40.0071 N   0  0  0  0  0  0  0  0  0  0  0  0
   34.2598  -24.9528   41.3932 C   0  0  0  0  0  0  0  0  0  0  0  0
   35.7294  -24.7478   41.5404 C   0  0  0  0  0  0  0  0  0  0  0  0
   36.2898  -25.5477   40.3851 C   0  0  0  0  0  0  0  0  0  0  0  0
   35.1717  -25.5962   39.3963 C   0  0  0  0  0  0  0  0  0  0  0  0
 17 18  1  0  0  0
 18  1  1  0  0  0
  1  2  2  0  0  0
  2  3  1  0  0  0
  3  4  2  0  0  0
  4 19  1  0  0  0
 19 21  1  0  0  0
 21 22  1  0  0  0
 22 23  1  0  0  0
 23 24  1  0  0  0
 24 25  1  0  0  0
 24 26  1  0  0  0
 26 27  1  0  0  0
  4  5  1  0  0  0
  5  6  2  0  0  0
  6  7  1  0  0  0
  7  8  2  0  0  0
  8  9  1  0  0  0
  9 10  2  0  0  0
 10 28  1  0  0  0
 28 29  1  0  0  0
 29 30  1  0  0  0
 30 31  1  0  0  0
 31 32  1  0  0  0
 32 33  1  0  0  0
 33 34  1  0  0  0
 34 35  1  0  0  0
 35 36  1  0  0  0
  6 11  1  0  0  0
 11 12  2  0  0  0
 12 13  1  0  0  0
 13 14  1  0  0  0
 14 15  1  0  0  0
 15 16  1  0  0  0
 10  1  1  0  0  0
 36 32  1  0  0  0
 16 11  1  0  0  0
  8  3  1  0  0  0
 27 21  1  0  0  0
 19 20  1  0  0  0
M  END
> <minimizedAffinity>
-5.59880

> <CNNscore>
0.4208538234

> <CNNaffinity>
6.0003881454

> <CNN_VS>
2.5252861977

> <CNNaffinity_variance>
0.0460024402

$$$$
[H]C1=C(c2nc3c([H])c(OC([H])([H])C([H])([H])C([H])([H])N4C([H])([H])C([H])([H])C([H])([H])C4([H])[H])c(OC([H])([H])[H])c([H])c3c(N([H])C3([H])C([H])([H])C([H])([H])N(C([H])([H])[H])C([H])([H])C3([H])[H])c2[H])C([H])([H])C([H])([H])C([H])([H])C1([H])[H]


 36 40  0  0  0  0  0  0  0  0999 V2000
   37.0737  -21.5553   38.2537 C   0  0  0  0  0  0  0  0  0  0  0  0
   37.7622  -20.6737   37.4036 C   0  0  0  0  0  0  0  0  0  0  0  0
   37.3128  -19.4198   37.0889 C   0  0  0  0  0  0  0  0  0  0  0  0
   37.9989  -18.5757   36.2523 C   0  0  0  0  0  0  0  0  0  0  0  0
   37.4307  -17.3274   36.0088 C   0  0  0  0  0  0  0  0  0  0  0  0
   36.2369  -16.9312   36.5681 C   0  0  0  0  0  0  0  0  0  0  0  0
   35.6370  -17.8172   37.3711 N   0  0  0  0  0  0  0  0  0  0  0  0
   36.1016  -19.0412   37.6675 C   0  0  0  0  0  0  0  0  0  0  0  0
   35.4235  -19.9021   38.5017 C   0  0  0  0  0  0  0  0  0  0  0  0
   35.8831  -21.1613   38.8121 C   0  0  0  0  0  0  0  0  0  0  0  0
   35.6083  -15.6434   36.3419 C   0  0  0  0  0  0  0  0  0  0  0  0
   34.2915  -15.5465   36.2469 C   0  0  0  0  0  0  0  0  0  0  0  0
   33.5801  -14.2778   36.0182 C   0  0  0  0  0  0  0  0  0  0  0  0
   34.2958  -13.0893   36.5821 C   0  0  0  0  0  0  0  0  0  0  0  0
   35.6660  -13.3585   37.1028 C   0  0  0  0  0  0  0  0  0  0  0  0
   36.3655  -14.3770   36.2014 C   0  0  0  0  0  0  0  0  0  0  0  0
   38.1985  -23.6786   37.6738 C   0  0  0  0  0  0  0  0  0  0  0  0
   37.5510  -22.8111   38.5511 O   0  0  0  0  0  0  0  0  0  0  0  0
   39.2131  -18.9619   35.6665 N   0  0  0  0  0  0  0  0  0  0  0  0
   40.0783  -18.9790   36.2356 H   0  0  0  0  0  0  0  0  0  0  0  0
   39.3628  -19.3547   34.2744 C   0  0  0  0  0  0  0  0  0  0  0  0
   39.2398  -20.8636   34.2037 C   0  0  0  0  0  0  0  0  0  0  0  0
   40.4754  -21.5618   34.7191 C   0  0  0  0  0  0  0  0  0  0  0  0
   41.5317  -21.3567   33.7421 N   0  0  0  0  0  0  0  0  0  0  0  0
   41.6316  -22.5255   32.9116 C   0  0  0  0  0  0  0  0  0  0  0  0
   41.2859  -20.2159   32.9110 C   0  0  0  0  0  0  0  0  0  0  0  0
   40.7385  -19.0310   33.7195 C   0  0  0  0  0  0  0  0  0  0  0  0
   35.1236  -21.9570   39.6654 O   0  0  0  0  0  0  0  0  0  0  0  0
   33.7709  -21.6042   39.9802 C   0  0  0  0  0  0  0  0  0  0  0  0
   33.4129  -22.2764   41.2966 C   0  0  0  0  0  0  0  0  0  0  0  0
   32.8633  -21.2169   42.2172 C   0  0  0  0  0  0  0  0  0  0  0  0
   32.0186  -21.7004   43.2422 N   0  0  0  0  0  0  0  0  0  0  0  0
   31.3179  -22.9062   43.0228 C   0  0  0  0  0  0  0  0  0  0  0  0
   29.9697  -22.5232   42.5136 C   0  0  0  0  0  0  0  0  0  0  0  0
   29.6951  -21.2311   43.2511 C   0  0  0  0  0  0  0  0  0  0  0  0
   31.0518  -20.7052   43.5870 C   0  0  0  0  0  0  0  0  0  0  0  0
 17 18  1  0  0  0
 18  1  1  0  0  0
  1  2  2  0  0  0
  2  3  1  0  0  0
  3  4  2  0  0  0
  4 19  1  0  0  0
 19 21  1  0  0  0
 21 22  1  0  0  0
 22 23  1  0  0  0
 23 24  1  0  0  0
 24 25  1  0  0  0
 24 26  1  0  0  0
 26 27  1  0  0  0
  4  5  1  0  0  0
  5  6  2  0  0  0
  6  7  1  0  0  0
  7  8  2  0  0  0
  8  9  1  0  0  0
  9 10  2  0  0  0
 10 28  1  0  0  0
 28 29  1  0  0  0
 29 30  1  0  0  0
 30 31  1  0  0  0
 31 32  1  0  0  0
 32 33  1  0  0  0
 33 34  1  0  0  0
 34 35  1  0  0  0
 35 36  1  0  0  0
  6 11  1  0  0  0
 11 12  2  0  0  0
 12 13  1  0  0  0
 13 14  1  0  0  0
 14 15  1  0  0  0
 15 16  1  0  0  0
 10  1  1  0  0  0
 36 32  1  0  0  0
 16 11  1  0  0  0
  8  3  1  0  0  0
 27 21  1  0  0  0
 19 20  1  0  0  0
M  END
> <minimizedAffinity>
-5.64303

> <CNNscore>
0.4144583046

> <CNNaffinity>
5.9401063919

> <CNN_VS>
2.4619264603

> <CNNaffinity_variance>
0.0319216661

$$$$
[H]C1=C(c2nc3c([H])c(OC([H])([H])C([H])([H])C([H])([H])N4C([H])([H])C([H])([H])C([H])([H])C4([H])[H])c(OC([H])([H])[H])c([H])c3c(N([H])C3([H])C([H])([H])C([H])([H])N(C([H])([H])[H])C([H])([H])C3([H])[H])c2[H])C([H])([H])C([H])([H])C([H])([H])C1([H])[H]


 36 40  0  0  0  0  0  0  0  0999 V2000
   36.2893  -21.8068   37.3348 C   0  0  0  0  0  0  0  0  0  0  0  0
   37.2160  -20.8120   36.9808 C   0  0  0  0  0  0  0  0  0  0  0  0
   36.8818  -19.4979   36.7945 C   0  0  0  0  0  0  0  0  0  0  0  0
   37.8022  -18.5423   36.4442 C   0  0  0  0  0  0  0  0  0  0  0  0
   37.3318  -17.2414   36.2802 C   0  0  0  0  0  0  0  0  0  0  0  0
   36.0097  -16.9005   36.4552 C   0  0  0  0  0  0  0  0  0  0  0  0
   35.1825  -17.8951   36.7962 N   0  0  0  0  0  0  0  0  0  0  0  0
   35.5368  -19.1771   36.9773 C   0  0  0  0  0  0  0  0  0  0  0  0
   34.6251  -20.1491   37.3248 C   0  0  0  0  0  0  0  0  0  0  0  0
   34.9705  -21.4681   37.5096 C   0  0  0  0  0  0  0  0  0  0  0  0
   35.4758  -15.5612   36.2940 C   0  0  0  0  0  0  0  0  0  0  0  0
   34.1681  -15.3566   36.2826 C   0  0  0  0  0  0  0  0  0  0  0  0
   33.5501  -14.0295   36.1237 C   0  0  0  0  0  0  0  0  0  0  0  0
   34.3931  -12.9167   36.6658 C   0  0  0  0  0  0  0  0  0  0  0  0
   35.7654  -13.3079   37.0953 C   0  0  0  0  0  0  0  0  0  0  0  0
   36.3241  -14.3565   36.1322 C   0  0  0  0  0  0  0  0  0  0  0  0
   37.1283  -23.6934   38.6938 C   0  0  0  0  0  0  0  0  0  0  0  0
   36.6558  -23.1209   37.5146 O   0  0  0  0  0  0  0  0  0  0  0  0
   39.1526  -18.8691   36.2542 N   0  0  0  0  0  0  0  0  0  0  0  0
   39.7313  -19.1618   37.0618 H   0  0  0  0  0  0  0  0  0  0  0  0
   39.8322  -18.8295   34.9693 C   0  0  0  0  0  0  0  0  0  0  0  0
   39.4550  -20.0842   34.2075 C   0  0  0  0  0  0  0  0  0  0  0  0
   40.1571  -21.3094   34.7422 C   0  0  0  0  0  0  0  0  0  0  0  0
   41.5576  -21.2078   34.3672 N   0  0  0  0  0  0  0  0  0  0  0  0
   41.7851  -22.0067   33.1943 C   0  0  0  0  0  0  0  0  0  0  0  0
   41.9474  -19.8569   34.0920 C   0  0  0  0  0  0  0  0  0  0  0  0
   41.3439  -18.8735   35.1049 C   0  0  0  0  0  0  0  0  0  0  0  0
   33.9744  -22.3757   37.8594 O   0  0  0  0  0  0  0  0  0  0  0  0
   33.3231  -23.1658   36.8570 C   0  0  0  0  0  0  0  0  0  0  0  0
   32.1144  -22.3841   36.3662 C   0  0  0  0  0  0  0  0  0  0  0  0
   32.3645  -22.0096   34.9277 C   0  0  0  0  0  0  0  0  0  0  0  0
   31.6338  -20.8898   34.4696 N   0  0  0  0  0  0  0  0  0  0  0  0
   32.2638  -19.9952   33.5776 C   0  0  0  0  0  0  0  0  0  0  0  0
   32.8315  -18.8978   34.4124 C   0  0  0  0  0  0  0  0  0  0  0  0
   31.8185  -18.7776   35.5296 C   0  0  0  0  0  0  0  0  0  0  0  0
   31.1701  -20.1218   35.5829 C   0  0  0  0  0  0  0  0  0  0  0  0
 17 18  1  0  0  0
 18  1  1  0  0  0
  1  2  2  0  0  0
  2  3  1  0  0  0
  3  4  2  0  0  0
  4 19  1  0  0  0
 19 21  1  0  0  0
 21 22  1  0  0  0
 22 23  1  0  0  0
 23 24  1  0  0  0
 24 25  1  0  0  0
 24 26  1  0  0  0
 26 27  1  0  0  0
  4  5  1  0  0  0
  5  6  2  0  0  0
  6  7  1  0  0  0
  7  8  2  0  0  0
  8  9  1  0  0  0
  9 10  2  0  0  0
 10 28  1  0  0  0
 28 29  1  0  0  0
 29 30  1  0  0  0
 30 31  1  0  0  0
 31 32  1  0  0  0
 32 33  1  0  0  0
 33 34  1  0  0  0
 34 35  1  0  0  0
 35 36  1  0  0  0
  6 11  1  0  0  0
 11 12  2  0  0  0
 12 13  1  0  0  0
 13 14  1  0  0  0
 14 15  1  0  0  0
 15 16  1  0  0  0
 10  1  1  0  0  0
 36 32  1  0  0  0
 16 11  1  0  0  0
  8  3  1  0  0  0
 27 21  1  0  0  0
 19 20  1  0  0  0
M  END
> <minimizedAffinity>
-6.57823

> <CNNscore>
0.3488519788

> <CNNaffinity>
6.2994756699

> <CNN_VS>
2.1975846291

> <CNNaffinity_variance>
0.1847274154

$$$$
[H]C1=C(c2nc3c([H])c(OC([H])([H])C([H])([H])C([H])([H])N4C([H])([H])C([H])([H])C([H])([H])C4([H])[H])c(OC([H])([H])[H])c([H])c3c(N([H])C3([H])C([H])([H])C([H])([H])N(C([H])([H])[H])C([H])([H])C3([H])[H])c2[H])C([H])([H])C([H])([H])C([H])([H])C1([H])[H]


 36 40  0  0  0  0  0  0  0  0999 V2000
   38.9824  -19.2088   36.7782 C   0  0  0  0  0  0  0  0  0  0  0  0
   37.9692  -18.2441   36.6500 C   0  0  0  0  0  0  0  0  0  0  0  0
   36.6598  -18.5507   36.3957 C   0  0  0  0  0  0  0  0  0  0  0  0
   35.6859  -17.5922   36.2695 C   0  0  0  0  0  0  0  0  0  0  0  0
   34.3922  -18.0361   36.0056 C   0  0  0  0  0  0  0  0  0  0  0  0
   34.0756  -19.3692   35.8726 C   0  0  0  0  0  0  0  0  0  0  0  0
   35.0867  -20.2341   36.0111 N   0  0  0  0  0  0  0  0  0  0  0  0
   36.3637  -19.9073   36.2650 C   0  0  0  0  0  0  0  0  0  0  0  0
   37.3537  -20.8564   36.3904 C   0  0  0  0  0  0  0  0  0  0  0  0
   38.6678  -20.5385   36.6458 C   0  0  0  0  0  0  0  0  0  0  0  0
   32.7445  -19.8763   35.5969 C   0  0  0  0  0  0  0  0  0  0  0  0
   32.1572  -20.7128   36.4381 C   0  0  0  0  0  0  0  0  0  0  0  0
   30.8105  -21.2705   36.2289 C   0  0  0  0  0  0  0  0  0  0  0  0
   29.9069  -20.3587   35.4575 C   0  0  0  0  0  0  0  0  0  0  0  0
   30.5617  -19.1500   34.8821 C   0  0  0  0  0  0  0  0  0  0  0  0
   31.9640  -19.5121   34.3906 C   0  0  0  0  0  0  0  0  0  0  0  0
   41.2887  -18.6507   36.0856 C   0  0  0  0  0  0  0  0  0  0  0  0
   40.2912  -18.8693   37.0336 O   0  0  0  0  0  0  0  0  0  0  0  0
   35.9880  -16.2285   36.3945 N   0  0  0  0  0  0  0  0  0  0  0  0
   36.7657  -15.9263   37.0081 H   0  0  0  0  0  0  0  0  0  0  0  0
   35.2728  -15.1646   35.7080 C   0  0  0  0  0  0  0  0  0  0  0  0
   35.8571  -13.8435   36.1665 C   0  0  0  0  0  0  0  0  0  0  0  0
   35.4178  -13.4796   37.5645 C   0  0  0  0  0  0  0  0  0  0  0  0
   34.0123  -13.1154   37.4990 N   0  0  0  0  0  0  0  0  0  0  0  0
   33.9035  -11.6829   37.4577 C   0  0  0  0  0  0  0  0  0  0  0  0
   33.3645  -13.6640   36.3449 C   0  0  0  0  0  0  0  0  0  0  0  0
   33.8021  -15.1119   36.0818 C   0  0  0  0  0  0  0  0  0  0  0  0
   39.5950  -21.5713   36.7542 O   0  0  0  0  0  0  0  0  0  0  0  0
   39.1623  -22.9358   36.8210 C   0  0  0  0  0  0  0  0  0  0  0  0
   40.1328  -23.6843   37.7216 C   0  0  0  0  0  0  0  0  0  0  0  0
   41.2082  -24.2745   36.8456 C   0  0  0  0  0  0  0  0  0  0  0  0
   42.2582  -24.9136   37.5430 N   0  0  0  0  0  0  0  0  0  0  0  0
   42.7406  -24.3153   38.7273 C   0  0  0  0  0  0  0  0  0  0  0  0
   43.9171  -23.4886   38.3324 C   0  0  0  0  0  0  0  0  0  0  0  0
   44.5214  -24.2951   37.2042 C   0  0  0  0  0  0  0  0  0  0  0  0
   43.3789  -25.0979   36.6746 C   0  0  0  0  0  0  0  0  0  0  0  0
 17 18  1  0  0  0
 18  1  1  0  0  0
  1  2  2  0  0  0
  2  3  1  0  0  0
  3  4  2  0  0  0
  4 19  1  0  0  0
 19 21  1  0  0  0
 21 22  1  0  0  0
 22 23  1  0  0  0
 23 24  1  0  0  0
 24 25  1  0  0  0
 24 26  1  0  0  0
 26 27  1  0  0  0
  4  5  1  0  0  0
  5  6  2  0  0  0
  6  7  1  0  0  0
  7  8  2  0  0  0
  8  9  1  0  0  0
  9 10  2  0  0  0
 10 28  1  0  0  0
 28 29  1  0  0  0
 29 30  1  0  0  0
 30 31  1  0  0  0
 31 32  1  0  0  0
 32 33  1  0  0  0
 33 34  1  0  0  0
 34 35  1  0  0  0
 35 36  1  0  0  0
  6 11  1  0  0  0
 11 12  2  0  0  0
 12 13  1  0  0  0
 13 14  1  0  0  0
 14 15  1  0  0  0
 15 16  1  0  0  0
 10  1  1  0  0  0
 36 32  1  0  0  0
 16 11  1  0  0  0
  8  3  1  0  0  0
 27 21  1  0  0  0
 19 20  1  0  0  0
M  END
> <minimizedAffinity>
-5.77094

> <CNNscore>
0.3364738524

> <CNNaffinity>
6.1690912247

> <CNN_VS>
2.0757379532

> <CNNaffinity_variance>
0.0334176198

$$$$
[H]C1=C(c2nc3c([H])c(OC([H])([H])C([H])([H])C([H])([H])N4C([H])([H])C([H])([H])C([H])([H])C4([H])[H])c(OC([H])([H])[H])c([H])c3c(N([H])C3([H])C([H])([H])C([H])([H])N(C([H])([H])[H])C([H])([H])C3([H])[H])c2[H])C([H])([H])C([H])([H])C([H])([H])C1([H])[H]


 36 40  0  0  0  0  0  0  0  0999 V2000
   36.4557  -15.0868   36.4941 C   0  0  0  0  0  0  0  0  0  0  0  0
   36.9319  -16.3995   36.6485 C   0  0  0  0  0  0  0  0  0  0  0  0
   36.1478  -17.5115   36.5004 C   0  0  0  0  0  0  0  0  0  0  0  0
   36.6321  -18.7855   36.6602 C   0  0  0  0  0  0  0  0  0  0  0  0
   35.7288  -19.8317   36.4867 C   0  0  0  0  0  0  0  0  0  0  0  0
   34.4051  -19.6269   36.1689 C   0  0  0  0  0  0  0  0  0  0  0  0
   34.0198  -18.3531   36.0320 N   0  0  0  0  0  0  0  0  0  0  0  0
   34.8109  -17.2787   36.1786 C   0  0  0  0  0  0  0  0  0  0  0  0
   34.3399  -15.9935   36.0258 C   0  0  0  0  0  0  0  0  0  0  0  0
   35.1359  -14.8814   36.1770 C   0  0  0  0  0  0  0  0  0  0  0  0
   33.4300  -20.6844   35.9803 C   0  0  0  0  0  0  0  0  0  0  0  0
   32.7415  -20.7696   34.8529 C   0  0  0  0  0  0  0  0  0  0  0  0
   31.7360  -21.8118   34.5864 C   0  0  0  0  0  0  0  0  0  0  0  0
   32.0220  -23.1022   35.2905 C   0  0  0  0  0  0  0  0  0  0  0  0
   33.1459  -23.0592   36.2681 C   0  0  0  0  0  0  0  0  0  0  0  0
   33.1356  -21.7173   37.0018 C   0  0  0  0  0  0  0  0  0  0  0  0
   38.0437  -13.6846   37.7677 C   0  0  0  0  0  0  0  0  0  0  0  0
   37.2689  -13.9878   36.6500 O   0  0  0  0  0  0  0  0  0  0  0  0
   37.9752  -19.0162   36.9907 N   0  0  0  0  0  0  0  0  0  0  0  0
   38.3978  -18.5307   37.8022 H   0  0  0  0  0  0  0  0  0  0  0  0
   38.8560  -19.9141   36.2609 C   0  0  0  0  0  0  0  0  0  0  0  0
   40.1062  -20.1140   37.0938 C   0  0  0  0  0  0  0  0  0  0  0  0
   41.0140  -18.9079   37.0594 C   0  0  0  0  0  0  0  0  0  0  0  0
   41.6097  -18.8482   35.7350 N   0  0  0  0  0  0  0  0  0  0  0  0
   42.9291  -19.4155   35.7915 C   0  0  0  0  0  0  0  0  0  0  0  0
   40.8381  -19.5626   34.7620 C   0  0  0  0  0  0  0  0  0  0  0  0
   39.3323  -19.3253   34.9449 C   0  0  0  0  0  0  0  0  0  0  0  0
   34.5648  -13.6237   36.0025 O   0  0  0  0  0  0  0  0  0  0  0  0
   34.8853  -12.5474   36.8925 C   0  0  0  0  0  0  0  0  0  0  0  0
   33.6206  -11.7289   37.1014 C   0  0  0  0  0  0  0  0  0  0  0  0
   32.6272  -12.5987   37.8286 C   0  0  0  0  0  0  0  0  0  0  0  0
   31.6807  -11.8956   38.6080 N   0  0  0  0  0  0  0  0  0  0  0  0
   30.4844  -12.5533   38.9676 C   0  0  0  0  0  0  0  0  0  0  0  0
   29.4696  -12.1710   37.9442 C   0  0  0  0  0  0  0  0  0  0  0  0
   29.8633  -10.7499   37.6063 C   0  0  0  0  0  0  0  0  0  0  0  0
   31.3147  -10.6798   37.9508 C   0  0  0  0  0  0  0  0  0  0  0  0
 17 18  1  0  0  0
 18  1  1  0  0  0
  1  2  2  0  0  0
  2  3  1  0  0  0
  3  4  2  0  0  0
  4 19  1  0  0  0
 19 21  1  0  0  0
 21 22  1  0  0  0
 22 23  1  0  0  0
 23 24  1  0  0  0
 24 25  1  0  0  0
 24 26  1  0  0  0
 26 27  1  0  0  0
  4  5  1  0  0  0
  5  6  2  0  0  0
  6  7  1  0  0  0
  7  8  2  0  0  0
  8  9  1  0  0  0
  9 10  2  0  0  0
 10 28  1  0  0  0
 28 29  1  0  0  0
 29 30  1  0  0  0
 30 31  1  0  0  0
 31 32  1  0  0  0
 32 33  1  0  0  0
 33 34  1  0  0  0
 34 35  1  0  0  0
 35 36  1  0  0  0
  6 11  1  0  0  0
 11 12  2  0  0  0
 12 13  1  0  0  0
 13 14  1  0  0  0
 14 15  1  0  0  0
 15 16  1  0  0  0
 10  1  1  0  0  0
 36 32  1  0  0  0
 16 11  1  0  0  0
  8  3  1  0  0  0
 27 21  1  0  0  0
 19 20  1  0  0  0
M  END
> <minimizedAffinity>
-6.80416

> <CNNscore>
0.3177623153

> <CNNaffinity>
6.4687500000

> <CNN_VS>
2.0555250645

> <CNNaffinity_variance>
0.1034890413

$$$$
[H]C1=C(c2nc3c([H])c(OC([H])([H])C([H])([H])C([H])([H])N4C([H])([H])C([H])([H])C([H])([H])C4([H])[H])c(OC([H])([H])[H])c([H])c3c(N([H])C3([H])C([H])([H])C([H])([H])N(C([H])([H])[H])C([H])([H])C3([H])[H])c2[H])C([H])([H])C([H])([H])C([H])([H])C1([H])[H]


 36 40  0  0  0  0  0  0  0  0999 V2000
   35.2478  -23.0638   38.0455 C   0  0  0  0  0  0  0  0  0  0  0  0
   36.3897  -22.3292   37.6846 C   0  0  0  0  0  0  0  0  0  0  0  0
   36.3951  -20.9704   37.5203 C   0  0  0  0  0  0  0  0  0  0  0  0
   37.5210  -20.2723   37.1627 C   0  0  0  0  0  0  0  0  0  0  0  0
   37.3917  -18.8923   37.0234 C   0  0  0  0  0  0  0  0  0  0  0  0
   36.2014  -18.2319   37.2289 C   0  0  0  0  0  0  0  0  0  0  0  0
   35.1557  -18.9912   37.5749 N   0  0  0  0  0  0  0  0  0  0  0  0
   35.1778  -20.3239   37.7339 C   0  0  0  0  0  0  0  0  0  0  0  0
   34.0561  -21.0400   38.0883 C   0  0  0  0  0  0  0  0  0  0  0  0
   34.0603  -22.4063   38.2507 C   0  0  0  0  0  0  0  0  0  0  0  0
   36.0205  -16.7988   37.0941 C   0  0  0  0  0  0  0  0  0  0  0  0
   36.7306  -15.9601   37.8320 C   0  0  0  0  0  0  0  0  0  0  0  0
   36.6047  -14.4950   37.7536 C   0  0  0  0  0  0  0  0  0  0  0  0
   36.2006  -14.0088   36.3960 C   0  0  0  0  0  0  0  0  0  0  0  0
   35.8198  -15.0733   35.4251 C   0  0  0  0  0  0  0  0  0  0  0  0
   35.0565  -16.1810   36.1528 C   0  0  0  0  0  0  0  0  0  0  0  0
   35.8299  -25.1295   39.2720 C   0  0  0  0  0  0  0  0  0  0  0  0
   35.2736  -24.4306   38.2026 O   0  0  0  0  0  0  0  0  0  0  0  0
   38.7418  -20.9260   36.9418 N   0  0  0  0  0  0  0  0  0  0  0  0
   39.3321  -21.2026   37.7467 H   0  0  0  0  0  0  0  0  0  0  0  0
   39.2663  -21.2598   35.6273 C   0  0  0  0  0  0  0  0  0  0  0  0
   40.7206  -20.8349   35.5879 C   0  0  0  0  0  0  0  0  0  0  0  0
   40.8747  -19.3378   35.4658 C   0  0  0  0  0  0  0  0  0  0  0  0
   40.4752  -18.9667   34.1185 N   0  0  0  0  0  0  0  0  0  0  0  0
   41.6528  -18.8123   33.3092 C   0  0  0  0  0  0  0  0  0  0  0  0
   39.6234  -19.9491   33.5169 C   0  0  0  0  0  0  0  0  0  0  0  0
   38.5851  -20.4872   34.5117 C   0  0  0  0  0  0  0  0  0  0  0  0
   32.8733  -23.0390   38.6099 O   0  0  0  0  0  0  0  0  0  0  0  0
   31.8137  -23.1959   37.6581 C   0  0  0  0  0  0  0  0  0  0  0  0
   32.4475  -23.3897   36.2893 C   0  0  0  0  0  0  0  0  0  0  0  0
   31.7719  -22.4401   35.3332 C   0  0  0  0  0  0  0  0  0  0  0  0
   32.2096  -21.0989   35.4193 N   0  0  0  0  0  0  0  0  0  0  0  0
   31.2839  -20.1147   35.8283 C   0  0  0  0  0  0  0  0  0  0  0  0
   30.7151  -19.5273   34.5814 C   0  0  0  0  0  0  0  0  0  0  0  0
   31.8894  -19.5787   33.6289 C   0  0  0  0  0  0  0  0  0  0  0  0
   32.7459  -20.6797   34.1620 C   0  0  0  0  0  0  0  0  0  0  0  0
 17 18  1  0  0  0
 18  1  1  0  0  0
  1  2  2  0  0  0
  2  3  1  0  0  0
  3  4  2  0  0  0
  4 19  1  0  0  0
 19 21  1  0  0  0
 21 22  1  0  0  0
 22 23  1  0  0  0
 23 24  1  0  0  0
 24 25  1  0  0  0
 24 26  1  0  0  0
 26 27  1  0  0  0
  4  5  1  0  0  0
  5  6  2  0  0  0
  6  7  1  0  0  0
  7  8  2  0  0  0
  8  9  1  0  0  0
  9 10  2  0  0  0
 10 28  1  0  0  0
 28 29  1  0  0  0
 29 30  1  0  0  0
 30 31  1  0  0  0
 31 32  1  0  0  0
 32 33  1  0  0  0
 33 34  1  0  0  0
 34 35  1  0  0  0
 35 36  1  0  0  0
  6 11  1  0  0  0
 11 12  2  0  0  0
 12 13  1  0  0  0
 13 14  1  0  0  0
 14 15  1  0  0  0
 15 16  1  0  0  0
 10  1  1  0  0  0
 36 32  1  0  0  0
 16 11  1  0  0  0
  8  3  1  0  0  0
 27 21  1  0  0  0
 19 20  1  0  0  0
M  END
> <minimizedAffinity>
-5.89465

> <CNNscore>
0.3084869981

> <CNNaffinity>
6.0712265968

> <CNN_VS>
1.8728945255

> <CNNaffinity_variance>
0.1722073406

$$$$
[H]c1c(OC([H])([H])C([H])([H])C([H])([H])N2C([H])([H])C([H])([H])C([H])([H])C([H])([H])C2([H])[H])c(OC([H])([H])[H])c([H])c2c(N([H])C3([H])C([H])([H])C([H])([H])N(C([H])(C([H])([H])[H])C([H])([H])[H])C([H])([H])C3([H])[H])nc(N3C([H])([H])C([H])([H])N(C([H])(C([H])([H])[H])C([H])([H])[H])C([H])([H])C([H])([H])C3([H])[H])nc12


 43 47  0  0  0  0  0  0  0  0999 V2000
   35.7818  -14.0886   36.6130 C   0  0  0  0  0  0  0  0  0  0  0  0
   36.3629  -15.2648   36.1823 C   0  0  0  0  0  0  0  0  0  0  0  0
   35.5991  -16.3658   35.8919 C   0  0  0  0  0  0  0  0  0  0  0  0
   36.1667  -17.5450   35.4586 C   0  0  0  0  0  0  0  0  0  0  0  0
   35.3196  -18.5846   35.1918 N   0  0  0  0  0  0  0  0  0  0  0  0
   33.9979  -18.4888   35.3361 C   0  0  0  0  0  0  0  0  0  0  0  0
   33.4769  -17.3396   35.7550 N   0  0  0  0  0  0  0  0  0  0  0  0
   34.2091  -16.2771   36.0396 C   0  0  0  0  0  0  0  0  0  0  0  0
   33.6554  -15.0924   36.4702 C   0  0  0  0  0  0  0  0  0  0  0  0
   34.4121  -13.9554   36.7734 C   0  0  0  0  0  0  0  0  0  0  0  0
   33.0941  -19.5485   35.0812 N   0  0  0  0  0  0  0  0  0  0  0  0
   33.1648  -20.6402   36.0121 C   0  0  0  0  0  0  0  0  0  0  0  0
   32.8036  -21.9188   35.2925 C   0  0  0  0  0  0  0  0  0  0  0  0
   31.3550  -21.9837   34.9130 C   0  0  0  0  0  0  0  0  0  0  0  0
   30.6231  -20.7896   35.1774 N   0  0  0  0  0  0  0  0  0  0  0  0
   30.8027  -19.7279   34.2359 C   0  0  0  0  0  0  0  0  0  0  0  0
   32.2290  -19.4109   33.9387 C   0  0  0  0  0  0  0  0  0  0  0  0
   29.2241  -21.0210   35.4746 C   0  0  0  0  0  0  0  0  0  0  0  0
   28.7858  -20.4161   36.7643 C   0  0  0  0  0  0  0  0  0  0  0  0
   28.9846  -22.5327   35.5795 C   0  0  0  0  0  0  0  0  0  0  0  0
   37.8826  -13.1779   37.4371 C   0  0  0  0  0  0  0  0  0  0  0  0
   36.5865  -13.0176   36.8918 O   0  0  0  0  0  0  0  0  0  0  0  0
   37.5556  -17.6891   35.3018 N   0  0  0  0  0  0  0  0  0  0  0  0
   38.2183  -16.9538   35.5432 H   0  0  0  0  0  0  0  0  0  0  0  0
   38.0904  -18.9262   34.7798 C   0  0  0  0  0  0  0  0  0  0  0  0
   38.8611  -18.7006   33.5316 C   0  0  0  0  0  0  0  0  0  0  0  0
   40.1892  -19.3810   33.4352 C   0  0  0  0  0  0  0  0  0  0  0  0
   40.9918  -19.2731   34.5981 N   0  0  0  0  0  0  0  0  0  0  0  0
   40.2960  -19.1823   35.8290 C   0  0  0  0  0  0  0  0  0  0  0  0
   38.8853  -19.6882   35.7714 C   0  0  0  0  0  0  0  0  0  0  0  0
   42.2102  -19.9889   34.5914 C   0  0  0  0  0  0  0  0  0  0  0  0
   42.7915  -19.9557   36.0033 C   0  0  0  0  0  0  0  0  0  0  0  0
   42.0597  -21.4089   34.1738 C   0  0  0  0  0  0  0  0  0  0  0  0
   33.8564  -12.8791   37.1680 O   0  0  0  0  0  0  0  0  0  0  0  0
   33.2379  -11.8244   37.6349 C   0  0  0  0  0  0  0  0  0  0  0  0
   31.7946  -11.7196   37.1971 C   0  0  0  0  0  0  0  0  0  0  0  0
   30.8340  -11.8995   38.3042 C   0  0  0  0  0  0  0  0  0  0  0  0
   29.4922  -12.1858   37.9302 N   0  0  0  0  0  0  0  0  0  0  0  0
   28.9230  -12.8380   39.1706 C   0  0  0  0  0  0  0  0  0  0  0  0
   29.1745  -11.9833   40.3638 C   0  0  0  0  0  0  0  0  0  0  0  0
   28.5794  -10.5993   40.2300 C   0  0  0  0  0  0  0  0  0  0  0  0
   28.7932  -10.0029   38.8810 C   0  0  0  0  0  0  0  0  0  0  0  0
   28.6170  -11.0257   37.8130 C   0  0  0  0  0  0  0  0  0  0  0  0
 21 22  1  0  0  0
 22  1  1  0  0  0
  1  2  2  0  0  0
  2  3  1  0  0  0
  3  4  2  0  0  0
  4 23  1  0  0  0
 23 25  1  0  0  0
 25 26  1  0  0  0
 26 27  1  0  0  0
 27 28  1  0  0  0
 28 29  1  0  0  0
 29 30  1  0  0  0
 28 31  1  0  0  0
 31 32  1  0  0  0
 31 33  1  0  0  0
  4  5  1  0  0  0
  5  6  2  0  0  0
  6  7  1  0  0  0
  7  8  2  0  0  0
  8  9  1  0  0  0
  9 10  2  0  0  0
 10 34  1  0  0  0
 34 35  1  0  0  0
 35 36  1  0  0  0
 36 37  1  0  0  0
 37 38  1  0  0  0
 38 39  1  0  0  0
 39 40  1  0  0  0
 40 41  1  0  0  0
 41 42  1  0  0  0
 42 43  1  0  0  0
  6 11  1  0  0  0
 11 12  1  0  0  0
 12 13  1  0  0  0
 13 14  1  0  0  0
 14 15  1  0  0  0
 15 16  1  0  0  0
 16 17  1  0  0  0
 15 18  1  0  0  0
 18 19  1  0  0  0
 18 20  1  0  0  0
 10  1  1  0  0  0
 43 38  1  0  0  0
 17 11  1  0  0  0
  8  3  1  0  0  0
 30 25  1  0  0  0
 23 24  1  0  0  0
M  END
> <minimizedAffinity>
-8.35865

> <CNNscore>
0.6373937130

> <CNNaffinity>
7.5776700974

> <CNN_VS>
4.8299593925

> <CNNaffinity_variance>
0.0837782025

$$$$
[H]c1c(OC([H])([H])C([H])([H])C([H])([H])N2C([H])([H])C([H])([H])C([H])([H])C([H])([H])C2([H])[H])c(OC([H])([H])[H])c([H])c2c(N([H])C3([H])C([H])([H])C([H])([H])N(C([H])(C([H])([H])[H])C([H])([H])[H])C([H])([H])C3([H])[H])nc(N3C([H])([H])C([H])([H])N(C([H])(C([H])([H])[H])C([H])([H])[H])C([H])([H])C([H])([H])C3([H])[H])nc12


 43 47  0  0  0  0  0  0  0  0999 V2000
   35.7850  -14.1184   36.5373 C   0  0  0  0  0  0  0  0  0  0  0  0
   36.2873  -15.3003   36.0297 C   0  0  0  0  0  0  0  0  0  0  0  0
   35.4599  -16.3562   35.7461 C   0  0  0  0  0  0  0  0  0  0  0  0
   35.9484  -17.5403   35.2366 C   0  0  0  0  0  0  0  0  0  0  0  0
   35.0420  -18.5324   34.9839 N   0  0  0  0  0  0  0  0  0  0  0  0
   33.7366  -18.3870   35.2114 C   0  0  0  0  0  0  0  0  0  0  0  0
   33.2924  -17.2342   35.7026 N   0  0  0  0  0  0  0  0  0  0  0  0
   34.0862  -16.2152   35.9809 C   0  0  0  0  0  0  0  0  0  0  0  0
   33.6117  -15.0261   36.4870 C   0  0  0  0  0  0  0  0  0  0  0  0
   34.4343  -13.9344   36.7850 C   0  0  0  0  0  0  0  0  0  0  0  0
   32.7735  -19.3973   34.9733 N   0  0  0  0  0  0  0  0  0  0  0  0
   33.2145  -20.7332   35.2633 C   0  0  0  0  0  0  0  0  0  0  0  0
   32.5149  -21.6916   34.3279 C   0  0  0  0  0  0  0  0  0  0  0  0
   31.0504  -21.8239   34.6189 C   0  0  0  0  0  0  0  0  0  0  0  0
   30.5671  -20.9351   35.6228 N   0  0  0  0  0  0  0  0  0  0  0  0
   30.3428  -19.5859   35.2043 C   0  0  0  0  0  0  0  0  0  0  0  0
   31.4906  -18.9746   34.4750 C   0  0  0  0  0  0  0  0  0  0  0  0
   29.4469  -21.4638   36.3745 C   0  0  0  0  0  0  0  0  0  0  0  0
   28.7019  -22.5331   35.6514 C   0  0  0  0  0  0  0  0  0  0  0  0
   28.4542  -20.3265   36.6476 C   0  0  0  0  0  0  0  0  0  0  0  0
   37.9168  -13.3199   37.3973 C   0  0  0  0  0  0  0  0  0  0  0  0
   36.6511  -13.0938   36.8056 O   0  0  0  0  0  0  0  0  0  0  0  0
   37.3179  -17.7362   34.9909 N   0  0  0  0  0  0  0  0  0  0  0  0
   37.9657  -16.9669   34.8275 H   0  0  0  0  0  0  0  0  0  0  0  0
   37.8540  -19.0783   34.9668 C   0  0  0  0  0  0  0  0  0  0  0  0
   39.3098  -19.0763   34.6783 C   0  0  0  0  0  0  0  0  0  0  0  0
   40.1632  -19.9450   35.5461 C   0  0  0  0  0  0  0  0  0  0  0  0
   39.8823  -19.8500   36.9319 N   0  0  0  0  0  0  0  0  0  0  0  0
   38.5406  -19.5524   37.2766 C   0  0  0  0  0  0  0  0  0  0  0  0
   37.5502  -19.8550   36.1917 C   0  0  0  0  0  0  0  0  0  0  0  0
   40.5914  -20.7301   37.7802 C   0  0  0  0  0  0  0  0  0  0  0  0
   41.6511  -19.9230   38.5274 C   0  0  0  0  0  0  0  0  0  0  0  0
   39.7262  -21.4152   38.7779 C   0  0  0  0  0  0  0  0  0  0  0  0
   33.9509  -12.8520   37.2515 O   0  0  0  0  0  0  0  0  0  0  0  0
   33.3840  -11.7901   37.7653 C   0  0  0  0  0  0  0  0  0  0  0  0
   31.9564  -11.5813   37.3134 C   0  0  0  0  0  0  0  0  0  0  0  0
   30.9606  -11.9106   38.3531 C   0  0  0  0  0  0  0  0  0  0  0  0
   29.6475  -12.2050   37.8933 N   0  0  0  0  0  0  0  0  0  0  0  0
   29.0070  -12.8711   39.0909 C   0  0  0  0  0  0  0  0  0  0  0  0
   29.1757  -12.0234   40.3035 C   0  0  0  0  0  0  0  0  0  0  0  0
   28.5783  -10.6433   40.1423 C   0  0  0  0  0  0  0  0  0  0  0  0
   28.8715  -10.0350   38.8136 C   0  0  0  0  0  0  0  0  0  0  0  0
   28.7716  -11.0511   37.7295 C   0  0  0  0  0  0  0  0  0  0  0  0
 21 22  1  0  0  0
 22  1  1  0  0  0
  1  2  2  0  0  0
  2  3  1  0  0  0
  3  4  2  0  0  0
  4 23  1  0  0  0
 23 25  1  0  0  0
 25 26  1  0  0  0
 26 27  1  0  0  0
 27 28  1  0  0  0
 28 29  1  0  0  0
 29 30  1  0  0  0
 28 31  1  0  0  0
 31 32  1  0  0  0
 31 33  1  0  0  0
  4  5  1  0  0  0
  5  6  2  0  0  0
  6  7  1  0  0  0
  7  8  2  0  0  0
  8  9  1  0  0  0
  9 10  2  0  0  0
 10 34  1  0  0  0
 34 35  1  0  0  0
 35 36  1  0  0  0
 36 37  1  0  0  0
 37 38  1  0  0  0
 38 39  1  0  0  0
 39 40  1  0  0  0
 40 41  1  0  0  0
 41 42  1  0  0  0
 42 43  1  0  0  0
  6 11  1  0  0  0
 11 12  1  0  0  0
 12 13  1  0  0  0
 13 14  1  0  0  0
 14 15  1  0  0  0
 15 16  1  0  0  0
 16 17  1  0  0  0
 15 18  1  0  0  0
 18 19  1  0  0  0
 18 20  1  0  0  0
 10  1  1  0  0  0
 43 38  1  0  0  0
 17 11  1  0  0  0
  8  3  1  0  0  0
 30 25  1  0  0  0
 23 24  1  0  0  0
M  END
> <minimizedAffinity>
-7.99678

> <CNNscore>
0.5862182975

> <CNNaffinity>
7.6024451256

> <CNN_VS>
4.4566922188

> <CNNaffinity_variance>
0.0835506767

$$$$
[H]c1c(OC([H])([H])C([H])([H])C([H])([H])N2C([H])([H])C([H])([H])C([H])([H])C([H])([H])C2([H])[H])c(OC([H])([H])[H])c([H])c2c(N([H])C3([H])C([H])([H])C([H])([H])N(C([H])(C([H])([H])[H])C([H])([H])[H])C([H])([H])C3([H])[H])nc(N3C([H])([H])C([H])([H])N(C([H])(C([H])([H])[H])C([H])([H])[H])C([H])([H])C([H])([H])C3([H])[H])nc12


 43 47  0  0  0  0  0  0  0  0999 V2000
   36.0147  -14.0243   36.8926 C   0  0  0  0  0  0  0  0  0  0  0  0
   36.6445  -15.2125   36.5790 C   0  0  0  0  0  0  0  0  0  0  0  0
   35.9216  -16.3390   36.2820 C   0  0  0  0  0  0  0  0  0  0  0  0
   36.5382  -17.5304   35.9648 C   0  0  0  0  0  0  0  0  0  0  0  0
   35.7295  -18.5957   35.6807 N   0  0  0  0  0  0  0  0  0  0  0  0
   34.3992  -18.5130   35.7022 C   0  0  0  0  0  0  0  0  0  0  0  0
   33.8306  -17.3515   36.0109 N   0  0  0  0  0  0  0  0  0  0  0  0
   34.5230  -16.2642   36.3014 C   0  0  0  0  0  0  0  0  0  0  0  0
   33.9204  -15.0673   36.6168 C   0  0  0  0  0  0  0  0  0  0  0  0
   34.6348  -13.9041   36.9239 C   0  0  0  0  0  0  0  0  0  0  0  0
   33.5332  -19.5986   35.4260 N   0  0  0  0  0  0  0  0  0  0  0  0
   33.6889  -20.1791   34.1214 C   0  0  0  0  0  0  0  0  0  0  0  0
   32.3521  -20.7138   33.6630 C   0  0  0  0  0  0  0  0  0  0  0  0
   31.9090  -21.9165   34.4401 C   0  0  0  0  0  0  0  0  0  0  0  0
   32.7523  -22.2505   35.5396 N   0  0  0  0  0  0  0  0  0  0  0  0
   32.5872  -21.4531   36.7155 C   0  0  0  0  0  0  0  0  0  0  0  0
   32.6139  -19.9836   36.4649 C   0  0  0  0  0  0  0  0  0  0  0  0
   32.7756  -23.6670   35.8428 C   0  0  0  0  0  0  0  0  0  0  0  0
   31.4648  -24.1907   36.3214 C   0  0  0  0  0  0  0  0  0  0  0  0
   33.7974  -23.9166   36.9596 C   0  0  0  0  0  0  0  0  0  0  0  0
   38.1452  -13.0411   37.5377 C   0  0  0  0  0  0  0  0  0  0  0  0
   36.7797  -12.9277   37.1832 O   0  0  0  0  0  0  0  0  0  0  0  0
   37.9370  -17.6609   35.9394 N   0  0  0  0  0  0  0  0  0  0  0  0
   38.5682  -16.8725   36.0736 H   0  0  0  0  0  0  0  0  0  0  0  0
   38.5286  -18.9608   35.7173 C   0  0  0  0  0  0  0  0  0  0  0  0
   39.1659  -19.0459   34.3796 C   0  0  0  0  0  0  0  0  0  0  0  0
   40.5341  -19.6473   34.3293 C   0  0  0  0  0  0  0  0  0  0  0  0
   41.4223  -19.1739   35.3268 N   0  0  0  0  0  0  0  0  0  0  0  0
   40.8308  -18.7859   36.5544 C   0  0  0  0  0  0  0  0  0  0  0  0
   39.4690  -19.3696   36.7871 C   0  0  0  0  0  0  0  0  0  0  0  0
   42.6924  -19.7908   35.3837 C   0  0  0  0  0  0  0  0  0  0  0  0
   43.2518  -19.6035   36.7925 C   0  0  0  0  0  0  0  0  0  0  0  0
   42.6574  -21.2461   35.0769 C   0  0  0  0  0  0  0  0  0  0  0  0
   34.0345  -12.8173   37.2093 O   0  0  0  0  0  0  0  0  0  0  0  0
   33.3516  -11.7518   37.5429 C   0  0  0  0  0  0  0  0  0  0  0  0
   31.9158  -11.7743   37.0698 C   0  0  0  0  0  0  0  0  0  0  0  0
   30.9363  -11.7212   38.1738 C   0  0  0  0  0  0  0  0  0  0  0  0
   29.6150  -12.1438   37.8609 N   0  0  0  0  0  0  0  0  0  0  0  0
   29.1859  -12.8789   39.1113 C   0  0  0  0  0  0  0  0  0  0  0  0
   29.4073  -12.0264   40.3119 C   0  0  0  0  0  0  0  0  0  0  0  0
   28.6608  -10.7128   40.2445 C   0  0  0  0  0  0  0  0  0  0  0  0
   28.7374  -10.0694   38.9023 C   0  0  0  0  0  0  0  0  0  0  0  0
   28.6154  -11.0833   37.8184 C   0  0  0  0  0  0  0  0  0  0  0  0
 21 22  1  0  0  0
 22  1  1  0  0  0
  1  2  2  0  0  0
  2  3  1  0  0  0
  3  4  2  0  0  0
  4 23  1  0  0  0
 23 25  1  0  0  0
 25 26  1  0  0  0
 26 27  1  0  0  0
 27 28  1  0  0  0
 28 29  1  0  0  0
 29 30  1  0  0  0
 28 31  1  0  0  0
 31 32  1  0  0  0
 31 33  1  0  0  0
  4  5  1  0  0  0
  5  6  2  0  0  0
  6  7  1  0  0  0
  7  8  2  0  0  0
  8  9  1  0  0  0
  9 10  2  0  0  0
 10 34  1  0  0  0
 34 35  1  0  0  0
 35 36  1  0  0  0
 36 37  1  0  0  0
 37 38  1  0  0  0
 38 39  1  0  0  0
 39 40  1  0  0  0
 40 41  1  0  0  0
 41 42  1  0  0  0
 42 43  1  0  0  0
  6 11  1  0  0  0
 11 12  1  0  0  0
 12 13  1  0  0  0
 13 14  1  0  0  0
 14 15  1  0  0  0
 15 16  1  0  0  0
 16 17  1  0  0  0
 15 18  1  0  0  0
 18 19  1  0  0  0
 18 20  1  0  0  0
 10  1  1  0  0  0
 43 38  1  0  0  0
 17 11  1  0  0  0
  8  3  1  0  0  0
 30 25  1  0  0  0
 23 24  1  0  0  0
M  END
> <minimizedAffinity>
-7.54114

> <CNNscore>
0.4676734507

> <CNNaffinity>
7.2740049362

> <CNN_VS>
3.4018590450

> <CNNaffinity_variance>
0.0360611938

$$$$
[H]c1c(OC([H])([H])C([H])([H])C([H])([H])N2C([H])([H])C([H])([H])C([H])([H])C([H])([H])C2([H])[H])c(OC([H])([H])[H])c([H])c2c(N([H])C3([H])C([H])([H])C([H])([H])N(C([H])(C([H])([H])[H])C([H])([H])[H])C([H])([H])C3([H])[H])nc(N3C([H])([H])C([H])([H])N(C([H])(C([H])([H])[H])C([H])([H])[H])C([H])([H])C([H])([H])C3([H])[H])nc12


 43 47  0  0  0  0  0  0  0  0999 V2000
   35.7702  -14.2278   36.5565 C   0  0  0  0  0  0  0  0  0  0  0  0
   36.2786  -15.4075   36.0499 C   0  0  0  0  0  0  0  0  0  0  0  0
   35.4564  -16.4671   35.7653 C   0  0  0  0  0  0  0  0  0  0  0  0
   35.9510  -17.6491   35.2567 C   0  0  0  0  0  0  0  0  0  0  0  0
   35.0494  -18.6453   35.0029 N   0  0  0  0  0  0  0  0  0  0  0  0
   33.7431  -18.5058   35.2283 C   0  0  0  0  0  0  0  0  0  0  0  0
   33.2929  -17.3550   35.7187 N   0  0  0  0  0  0  0  0  0  0  0  0
   34.0818  -16.3323   35.9980 C   0  0  0  0  0  0  0  0  0  0  0  0
   33.6011  -15.1453   36.5032 C   0  0  0  0  0  0  0  0  0  0  0  0
   34.4184  -14.0498   36.8022 C   0  0  0  0  0  0  0  0  0  0  0  0
   32.7849  -19.5205   34.9890 N   0  0  0  0  0  0  0  0  0  0  0  0
   33.1584  -20.8267   35.4555 C   0  0  0  0  0  0  0  0  0  0  0  0
   32.5370  -21.8641   34.5496 C   0  0  0  0  0  0  0  0  0  0  0  0
   31.0471  -21.9444   34.6929 C   0  0  0  0  0  0  0  0  0  0  0  0
   30.4834  -20.9516   35.5461 N   0  0  0  0  0  0  0  0  0  0  0  0
   30.3394  -19.6483   34.9746 C   0  0  0  0  0  0  0  0  0  0  0  0
   31.5731  -19.1312   34.3162 C   0  0  0  0  0  0  0  0  0  0  0  0
   29.2770  -21.3848   36.2214 C   0  0  0  0  0  0  0  0  0  0  0  0
   28.4408  -20.2562   36.7199 C   0  0  0  0  0  0  0  0  0  0  0  0
   29.6691  -22.2299   37.4402 C   0  0  0  0  0  0  0  0  0  0  0  0
   37.8600  -13.4086   37.4964 C   0  0  0  0  0  0  0  0  0  0  0  0
   36.6313  -13.1992   36.8259 O   0  0  0  0  0  0  0  0  0  0  0  0
   37.3217  -17.8388   35.0131 N   0  0  0  0  0  0  0  0  0  0  0  0
   37.7955  -17.4591   34.1949 H   0  0  0  0  0  0  0  0  0  0  0  0
   38.1148  -18.6002   35.9515 C   0  0  0  0  0  0  0  0  0  0  0  0
   37.3135  -19.6698   36.5970 C   0  0  0  0  0  0  0  0  0  0  0  0
   37.9451  -21.0231   36.6729 C   0  0  0  0  0  0  0  0  0  0  0  0
   38.5610  -21.4536   35.4714 N   0  0  0  0  0  0  0  0  0  0  0  0
   39.0959  -20.4340   34.6455 C   0  0  0  0  0  0  0  0  0  0  0  0
   39.3612  -19.1439   35.3629 C   0  0  0  0  0  0  0  0  0  0  0  0
   39.2614  -22.6796   35.5266 C   0  0  0  0  0  0  0  0  0  0  0  0
   38.7895  -23.4442   36.7617 C   0  0  0  0  0  0  0  0  0  0  0  0
   39.0495  -23.5363   34.3289 C   0  0  0  0  0  0  0  0  0  0  0  0
   33.9294  -12.9695   37.2678 O   0  0  0  0  0  0  0  0  0  0  0  0
   33.4317  -11.8244   37.6602 C   0  0  0  0  0  0  0  0  0  0  0  0
   31.9216  -11.7671   37.6134 C   0  0  0  0  0  0  0  0  0  0  0  0
   31.2722  -12.7007   38.5555 C   0  0  0  0  0  0  0  0  0  0  0  0
   30.7943  -12.1354   39.7697 N   0  0  0  0  0  0  0  0  0  0  0  0
   29.4293  -11.6076   39.3874 C   0  0  0  0  0  0  0  0  0  0  0  0
   28.6314  -12.6752   38.7235 C   0  0  0  0  0  0  0  0  0  0  0  0
   28.4492  -13.8986   39.5939 C   0  0  0  0  0  0  0  0  0  0  0  0
   29.6962  -14.2947   40.3076 C   0  0  0  0  0  0  0  0  0  0  0  0
   30.4291  -13.0967   40.8031 C   0  0  0  0  0  0  0  0  0  0  0  0
 21 22  1  0  0  0
 22  1  1  0  0  0
  1  2  2  0  0  0
  2  3  1  0  0  0
  3  4  2  0  0  0
  4 23  1  0  0  0
 23 25  1  0  0  0
 25 26  1  0  0  0
 26 27  1  0  0  0
 27 28  1  0  0  0
 28 29  1  0  0  0
 29 30  1  0  0  0
 28 31  1  0  0  0
 31 32  1  0  0  0
 31 33  1  0  0  0
  4  5  1  0  0  0
  5  6  2  0  0  0
  6  7  1  0  0  0
  7  8  2  0  0  0
  8  9  1  0  0  0
  9 10  2  0  0  0
 10 34  1  0  0  0
 34 35  1  0  0  0
 35 36  1  0  0  0
 36 37  1  0  0  0
 37 38  1  0  0  0
 38 39  1  0  0  0
 39 40  1  0  0  0
 40 41  1  0  0  0
 41 42  1  0  0  0
 42 43  1  0  0  0
  6 11  1  0  0  0
 11 12  1  0  0  0
 12 13  1  0  0  0
 13 14  1  0  0  0
 14 15  1  0  0  0
 15 16  1  0  0  0
 16 17  1  0  0  0
 15 18  1  0  0  0
 18 19  1  0  0  0
 18 20  1  0  0  0
 10  1  1  0  0  0
 43 38  1  0  0  0
 17 11  1  0  0  0
  8  3  1  0  0  0
 30 25  1  0  0  0
 23 24  1  0  0  0
M  END
> <minimizedAffinity>
-7.10187

> <CNNscore>
0.3679738641

> <CNNaffinity>
7.0994172096

> <CNN_VS>
2.6124000549

> <CNNaffinity_variance>
0.2349435389

$$$$
[H]c1c(OC([H])([H])C([H])([H])C([H])([H])N2C([H])([H])C([H])([H])C([H])([H])C([H])([H])C2([H])[H])c(OC([H])([H])[H])c([H])c2c(N([H])C3([H])C([H])([H])C([H])([H])N(C([H])(C([H])([H])[H])C([H])([H])[H])C([H])([H])C3([H])[H])nc(N3C([H])([H])C([H])([H])N(C([H])(C([H])([H])[H])C([H])([H])[H])C([H])([H])C([H])([H])C3([H])[H])nc12


 43 47  0  0  0  0  0  0  0  0999 V2000
   37.0364  -18.9443   35.6537 C   0  0  0  0  0  0  0  0  0  0  0  0
   35.7336  -18.5819   35.3742 C   0  0  0  0  0  0  0  0  0  0  0  0
   35.2417  -17.3609   35.7575 C   0  0  0  0  0  0  0  0  0  0  0  0
   33.9440  -16.9860   35.4822 C   0  0  0  0  0  0  0  0  0  0  0  0
   33.5495  -15.7464   35.9033 N   0  0  0  0  0  0  0  0  0  0  0  0
   34.3646  -14.9163   36.5541 C   0  0  0  0  0  0  0  0  0  0  0  0
   35.6114  -15.3030   36.8060 N   0  0  0  0  0  0  0  0  0  0  0  0
   36.0889  -16.4801   36.4419 C   0  0  0  0  0  0  0  0  0  0  0  0
   37.3834  -16.8662   36.7075 C   0  0  0  0  0  0  0  0  0  0  0  0
   37.9093  -18.1058   36.3278 C   0  0  0  0  0  0  0  0  0  0  0  0
   33.9850  -13.6324   37.0150 N   0  0  0  0  0  0  0  0  0  0  0  0
   34.4679  -12.5377   36.2202 C   0  0  0  0  0  0  0  0  0  0  0  0
   34.6876  -11.3427   37.1184 C   0  0  0  0  0  0  0  0  0  0  0  0
   33.4067  -10.7568   37.6311 C   0  0  0  0  0  0  0  0  0  0  0  0
   32.2407  -11.5026   37.2912 N   0  0  0  0  0  0  0  0  0  0  0  0
   31.9985  -12.6724   38.0777 C   0  0  0  0  0  0  0  0  0  0  0  0
   33.1772  -13.5764   38.2054 C   0  0  0  0  0  0  0  0  0  0  0  0
   31.0515  -10.6869   37.1507 C   0  0  0  0  0  0  0  0  0  0  0  0
   31.2663   -9.2598   37.5231 C   0  0  0  0  0  0  0  0  0  0  0  0
   29.9619  -11.2376   38.0796 C   0  0  0  0  0  0  0  0  0  0  0  0
   38.1934  -20.3538   34.0423 C   0  0  0  0  0  0  0  0  0  0  0  0
   37.4806  -20.1745   35.2517 O   0  0  0  0  0  0  0  0  0  0  0  0
   33.0514  -17.8350   34.8063 N   0  0  0  0  0  0  0  0  0  0  0  0
   33.0358  -17.9255   33.7916 H   0  0  0  0  0  0  0  0  0  0  0  0
   32.1071  -18.6256   35.5628 C   0  0  0  0  0  0  0  0  0  0  0  0
   30.9559  -19.0446   34.7250 C   0  0  0  0  0  0  0  0  0  0  0  0
   30.5419  -20.4778   34.8285 C   0  0  0  0  0  0  0  0  0  0  0  0
   31.6131  -21.4046   34.7853 N   0  0  0  0  0  0  0  0  0  0  0  0
   32.8491  -20.9531   35.3104 C   0  0  0  0  0  0  0  0  0  0  0  0
   32.7255  -19.7866   36.2450 C   0  0  0  0  0  0  0  0  0  0  0  0
   31.2793  -22.7631   34.9854 C   0  0  0  0  0  0  0  0  0  0  0  0
   32.3257  -23.3808   35.9107 C   0  0  0  0  0  0  0  0  0  0  0  0
   29.9351  -22.9587   35.5922 C   0  0  0  0  0  0  0  0  0  0  0  0
   39.1147  -18.4206   36.5941 O   0  0  0  0  0  0  0  0  0  0  0  0
   40.3331  -18.7309   36.9575 C   0  0  0  0  0  0  0  0  0  0  0  0
   41.1645  -19.3377   35.8501 C   0  0  0  0  0  0  0  0  0  0  0  0
   42.0946  -18.3764   35.2242 C   0  0  0  0  0  0  0  0  0  0  0  0
   43.4655  -18.7538   35.2017 N   0  0  0  0  0  0  0  0  0  0  0  0
   44.1208  -17.6174   34.4486 C   0  0  0  0  0  0  0  0  0  0  0  0
   43.7402  -16.3111   35.0535 C   0  0  0  0  0  0  0  0  0  0  0  0
   44.1229  -16.2067   36.5130 C   0  0  0  0  0  0  0  0  0  0  0  0
   43.8276  -17.4493   37.2813 C   0  0  0  0  0  0  0  0  0  0  0  0
   44.1584  -18.6609   36.4811 C   0  0  0  0  0  0  0  0  0  0  0  0
 21 22  1  0  0  0
 22  1  1  0  0  0
  1  2  2  0  0  0
  2  3  1  0  0  0
  3  4  2  0  0  0
  4 23  1  0  0  0
 23 25  1  0  0  0
 25 26  1  0  0  0
 26 27  1  0  0  0
 27 28  1  0  0  0
 28 29  1  0  0  0
 29 30  1  0  0  0
 28 31  1  0  0  0
 31 32  1  0  0  0
 31 33  1  0  0  0
  4  5  1  0  0  0
  5  6  2  0  0  0
  6  7  1  0  0  0
  7  8  2  0  0  0
  8  9  1  0  0  0
  9 10  2  0  0  0
 10 34  1  0  0  0
 34 35  1  0  0  0
 35 36  1  0  0  0
 36 37  1  0  0  0
 37 38  1  0  0  0
 38 39  1  0  0  0
 39 40  1  0  0  0
 40 41  1  0  0  0
 41 42  1  0  0  0
 42 43  1  0  0  0
  6 11  1  0  0  0
 11 12  1  0  0  0
 12 13  1  0  0  0
 13 14  1  0  0  0
 14 15  1  0  0  0
 15 16  1  0  0  0
 16 17  1  0  0  0
 15 18  1  0  0  0
 18 19  1  0  0  0
 18 20  1  0  0  0
 10  1  1  0  0  0
 43 38  1  0  0  0
 17 11  1  0  0  0
  8  3  1  0  0  0
 30 25  1  0  0  0
 23 24  1  0  0  0
M  END
> <minimizedAffinity>
-7.79196

> <CNNscore>
0.3102851510

> <CNNaffinity>
6.9496774673

> <CNN_VS>
2.1563816071

> <CNNaffinity_variance>
0.1137451977

$$$$
[H]c1c(OC([H])([H])C([H])([H])C([H])([H])N2C([H])([H])C([H])([H])C([H])([H])C([H])([H])C2([H])[H])c(OC([H])([H])[H])c([H])c2c(N([H])C3([H])C([H])([H])C([H])([H])N(C([H])(C([H])([H])[H])C([H])([H])[H])C([H])([H])C3([H])[H])nc(N3C([H])([H])C([H])([H])N(C([H])(C([H])([H])[H])C([H])([H])[H])C([H])([H])C([H])([H])C3([H])[H])nc12


 43 47  0  0  0  0  0  0  0  0999 V2000
   35.6281  -15.4640   36.2493 C   0  0  0  0  0  0  0  0  0  0  0  0
   36.3195  -16.6583   36.2996 C   0  0  0  0  0  0  0  0  0  0  0  0
   35.6629  -17.8592   36.2193 C   0  0  0  0  0  0  0  0  0  0  0  0
   36.3416  -19.0582   36.2655 C   0  0  0  0  0  0  0  0  0  0  0  0
   35.5968  -20.2012   36.1743 N   0  0  0  0  0  0  0  0  0  0  0  0
   34.2701  -20.1851   36.0455 C   0  0  0  0  0  0  0  0  0  0  0  0
   33.6409  -19.0147   36.0029 N   0  0  0  0  0  0  0  0  0  0  0  0
   34.2688  -17.8549   36.0837 C   0  0  0  0  0  0  0  0  0  0  0  0
   33.6041  -16.6503   36.0357 C   0  0  0  0  0  0  0  0  0  0  0  0
   34.2501  -15.4119   36.1159 C   0  0  0  0  0  0  0  0  0  0  0  0
   33.4680  -21.3489   35.9612 N   0  0  0  0  0  0  0  0  0  0  0  0
   33.6896  -22.3124   37.0034 C   0  0  0  0  0  0  0  0  0  0  0  0
   33.4286  -23.6950   36.4527 C   0  0  0  0  0  0  0  0  0  0  0  0
   31.9788  -23.9421   36.1633 C   0  0  0  0  0  0  0  0  0  0  0  0
   31.1420  -22.8006   36.3320 N   0  0  0  0  0  0  0  0  0  0  0  0
   31.1718  -21.8442   35.2689 C   0  0  0  0  0  0  0  0  0  0  0  0
   32.5443  -21.4292   34.8599 C   0  0  0  0  0  0  0  0  0  0  0  0
   29.7880  -23.1283   36.7298 C   0  0  0  0  0  0  0  0  0  0  0  0
   29.5520  -24.5929   36.8732 C   0  0  0  0  0  0  0  0  0  0  0  0
   28.8197  -22.6173   35.6552 C   0  0  0  0  0  0  0  0  0  0  0  0
   36.9329  -13.8680   37.5424 C   0  0  0  0  0  0  0  0  0  0  0  0
   36.3280  -14.2914   36.3349 O   0  0  0  0  0  0  0  0  0  0  0  0
   37.7381  -19.1180   36.4090 N   0  0  0  0  0  0  0  0  0  0  0  0
   38.2271  -18.7407   37.2193 H   0  0  0  0  0  0  0  0  0  0  0  0
   38.5358  -19.7392   35.3761 C   0  0  0  0  0  0  0  0  0  0  0  0
   38.8428  -18.7864   34.2804 C   0  0  0  0  0  0  0  0  0  0  0  0
   40.2594  -18.7527   33.8028 C   0  0  0  0  0  0  0  0  0  0  0  0
   41.2287  -18.7252   34.8363 N   0  0  0  0  0  0  0  0  0  0  0  0
   40.8713  -19.3761   36.0429 C   0  0  0  0  0  0  0  0  0  0  0  0
   39.7683  -20.3809   35.8909 C   0  0  0  0  0  0  0  0  0  0  0  0
   42.5812  -18.7992   34.4337 C   0  0  0  0  0  0  0  0  0  0  0  0
   43.2486  -17.4632   34.7535 C   0  0  0  0  0  0  0  0  0  0  0  0
   43.3416  -19.8834   35.1115 C   0  0  0  0  0  0  0  0  0  0  0  0
   33.5939  -14.3210   36.0662 O   0  0  0  0  0  0  0  0  0  0  0  0
   32.9567  -13.1783   36.0975 C   0  0  0  0  0  0  0  0  0  0  0  0
   32.4327  -12.8089   37.4667 C   0  0  0  0  0  0  0  0  0  0  0  0
   31.1481  -12.0817   37.4237 C   0  0  0  0  0  0  0  0  0  0  0  0
   30.8249  -11.3107   38.5742 N   0  0  0  0  0  0  0  0  0  0  0  0
   29.7298  -10.3943   38.0752 C   0  0  0  0  0  0  0  0  0  0  0  0
   28.6580  -11.1862   37.4108 C   0  0  0  0  0  0  0  0  0  0  0  0
   28.0414  -12.2216   38.3247 C   0  0  0  0  0  0  0  0  0  0  0  0
   29.0526  -12.9530   39.1396 C   0  0  0  0  0  0  0  0  0  0  0  0
   30.1141  -12.0284   39.6255 C   0  0  0  0  0  0  0  0  0  0  0  0
 21 22  1  0  0  0
 22  1  1  0  0  0
  1  2  2  0  0  0
  2  3  1  0  0  0
  3  4  2  0  0  0
  4 23  1  0  0  0
 23 25  1  0  0  0
 25 26  1  0  0  0
 26 27  1  0  0  0
 27 28  1  0  0  0
 28 29  1  0  0  0
 29 30  1  0  0  0
 28 31  1  0  0  0
 31 32  1  0  0  0
 31 33  1  0  0  0
  4  5  1  0  0  0
  5  6  2  0  0  0
  6  7  1  0  0  0
  7  8  2  0  0  0
  8  9  1  0  0  0
  9 10  2  0  0  0
 10 34  1  0  0  0
 34 35  1  0  0  0
 35 36  1  0  0  0
 36 37  1  0  0  0
 37 38  1  0  0  0
 38 39  1  0  0  0
 39 40  1  0  0  0
 40 41  1  0  0  0
 41 42  1  0  0  0
 42 43  1  0  0  0
  6 11  1  0  0  0
 11 12  1  0  0  0
 12 13  1  0  0  0
 13 14  1  0  0  0
 14 15  1  0  0  0
 15 16  1  0  0  0
 16 17  1  0  0  0
 15 18  1  0  0  0
 18 19  1  0  0  0
 18 20  1  0  0  0
 10  1  1  0  0  0
 43 38  1  0  0  0
 17 11  1  0  0  0
  8  3  1  0  0  0
 30 25  1  0  0  0
 23 24  1  0  0  0
M  END
> <minimizedAffinity>
-6.77721

> <CNNscore>
0.2765999436

> <CNNaffinity>
6.6676788330

> <CNN_VS>
1.8442796469

> <CNNaffinity_variance>
0.0341372676

$$$$
[H]c1c(OC([H])([H])C([H])([H])C([H])([H])N2C([H])([H])C([H])([H])C([H])([H])C([H])([H])C2([H])[H])c(OC([H])([H])[H])c([H])c2c(N([H])C3([H])C([H])([H])C([H])([H])N(C([H])(C([H])([H])[H])C([H])([H])[H])C([H])([H])C3([H])[H])nc(N3C([H])([H])C([H])([H])N(C([H])(C([H])([H])[H])C([H])([H])[H])C([H])([H])C([H])([H])C3([H])[H])nc12


 43 47  0  0  0  0  0  0  0  0999 V2000
   35.6249  -15.4031   35.8517 C   0  0  0  0  0  0  0  0  0  0  0  0
   36.0648  -16.6547   35.4686 C   0  0  0  0  0  0  0  0  0  0  0  0
   35.2203  -17.7348   35.4793 C   0  0  0  0  0  0  0  0  0  0  0  0
   35.6464  -18.9888   35.0966 C   0  0  0  0  0  0  0  0  0  0  0  0
   34.7274  -20.0003   35.1391 N   0  0  0  0  0  0  0  0  0  0  0  0
   33.4673  -19.8095   35.5297 C   0  0  0  0  0  0  0  0  0  0  0  0
   33.0829  -18.5897   35.8929 N   0  0  0  0  0  0  0  0  0  0  0  0
   33.8939  -17.5465   35.8878 C   0  0  0  0  0  0  0  0  0  0  0  0
   33.4810  -16.2883   36.2643 C   0  0  0  0  0  0  0  0  0  0  0  0
   34.3224  -15.1704   36.2627 C   0  0  0  0  0  0  0  0  0  0  0  0
   32.4946  -20.8362   35.5975 N   0  0  0  0  0  0  0  0  0  0  0  0
   31.3520  -20.6433   34.7487 C   0  0  0  0  0  0  0  0  0  0  0  0
   30.1453  -21.2730   35.4047 C   0  0  0  0  0  0  0  0  0  0  0  0
   30.2112  -22.7703   35.4290 C   0  0  0  0  0  0  0  0  0  0  0  0
   31.4415  -23.3131   34.9565 N   0  0  0  0  0  0  0  0  0  0  0  0
   32.5357  -23.2688   35.8766 C   0  0  0  0  0  0  0  0  0  0  0  0
   32.7591  -21.9306   36.4948 C   0  0  0  0  0  0  0  0  0  0  0  0
   31.3013  -24.6176   34.3419 C   0  0  0  0  0  0  0  0  0  0  0  0
   31.4348  -24.5892   32.8577 C   0  0  0  0  0  0  0  0  0  0  0  0
   29.9044  -25.1663   34.6599 C   0  0  0  0  0  0  0  0  0  0  0  0
   37.1550  -13.8957   36.9956 C   0  0  0  0  0  0  0  0  0  0  0  0
   36.5059  -14.3566   35.8254 O   0  0  0  0  0  0  0  0  0  0  0  0
   36.9680  -19.2330   34.6868 N   0  0  0  0  0  0  0  0  0  0  0  0
   37.2295  -19.3593   33.7102 H   0  0  0  0  0  0  0  0  0  0  0  0
   38.0193  -19.3100   35.6757 C   0  0  0  0  0  0  0  0  0  0  0  0
   37.9379  -20.5689   36.4576 C   0  0  0  0  0  0  0  0  0  0  0  0
   39.2189  -21.3139   36.6582 C   0  0  0  0  0  0  0  0  0  0  0  0
   40.0111  -21.4478   35.4908 N   0  0  0  0  0  0  0  0  0  0  0  0
   39.9069  -20.3992   34.5436 C   0  0  0  0  0  0  0  0  0  0  0  0
   39.3749  -19.1162   35.1094 C   0  0  0  0  0  0  0  0  0  0  0  0
   41.2779  -22.0519   35.6550 C   0  0  0  0  0  0  0  0  0  0  0  0
   42.1914  -21.5582   34.5349 C   0  0  0  0  0  0  0  0  0  0  0  0
   41.9176  -21.7392   36.9612 C   0  0  0  0  0  0  0  0  0  0  0  0
   33.8965  -14.0237   36.6186 O   0  0  0  0  0  0  0  0  0  0  0  0
   33.4586  -12.8767   37.0719 C   0  0  0  0  0  0  0  0  0  0  0  0
   32.8031  -12.9677   38.4313 C   0  0  0  0  0  0  0  0  0  0  0  0
   31.6486  -12.0597   38.5848 C   0  0  0  0  0  0  0  0  0  0  0  0
   30.7478  -11.9990   37.4861 N   0  0  0  0  0  0  0  0  0  0  0  0
   29.4024  -12.2431   38.1328 C   0  0  0  0  0  0  0  0  0  0  0  0
   29.2065  -11.3152   39.2809 C   0  0  0  0  0  0  0  0  0  0  0  0
   29.2918   -9.8594   38.8797 C   0  0  0  0  0  0  0  0  0  0  0  0
   30.4107   -9.5818   37.9351 C   0  0  0  0  0  0  0  0  0  0  0  0
   30.5374  -10.6695   36.9258 C   0  0  0  0  0  0  0  0  0  0  0  0
 21 22  1  0  0  0
 22  1  1  0  0  0
  1  2  2  0  0  0
  2  3  1  0  0  0
  3  4  2  0  0  0
  4 23  1  0  0  0
 23 25  1  0  0  0
 25 26  1  0  0  0
 26 27  1  0  0  0
 27 28  1  0  0  0
 28 29  1  0  0  0
 29 30  1  0  0  0
 28 31  1  0  0  0
 31 32  1  0  0  0
 31 33  1  0  0  0
  4  5  1  0  0  0
  5  6  2  0  0  0
  6  7  1  0  0  0
  7  8  2  0  0  0
  8  9  1  0  0  0
  9 10  2  0  0  0
 10 34  1  0  0  0
 34 35  1  0  0  0
 35 36  1  0  0  0
 36 37  1  0  0  0
 37 38  1  0  0  0
 38 39  1  0  0  0
 39 40  1  0  0  0
 40 41  1  0  0  0
 41 42  1  0  0  0
 42 43  1  0  0  0
  6 11  1  0  0  0
 11 12  1  0  0  0
 12 13  1  0  0  0
 13 14  1  0  0  0
 14 15  1  0  0  0
 15 16  1  0  0  0
 16 17  1  0  0  0
 15 18  1  0  0  0
 18 19  1  0  0  0
 18 20  1  0  0  0
 10  1  1  0  0  0
 43 38  1  0  0  0
 17 11  1  0  0  0
  8  3  1  0  0  0
 30 25  1  0  0  0
 23 24  1  0  0  0
M  END
> <minimizedAffinity>
-6.53445

> <CNNscore>
0.2161342502

> <CNNaffinity>
6.6830039024

> <CNN_VS>
1.4444260597

> <CNNaffinity_variance>
0.1013030782

$$$$
[H]c1c(OC([H])([H])C([H])([H])C([H])([H])N2C([H])([H])C([H])([H])C([H])([H])C([H])([H])C2([H])[H])c(OC([H])([H])[H])c([H])c2c(N([H])C3([H])C([H])([H])C([H])([H])N(C([H])(C([H])([H])[H])C([H])([H])[H])C([H])([H])C3([H])[H])nc(N3C([H])([H])C([H])([H])N(C([H])(C([H])([H])[H])C([H])([H])[H])C([H])([H])C([H])([H])C3([H])[H])nc12


 43 47  0  0  0  0  0  0  0  0999 V2000
   37.1054  -19.0399   35.6830 C   0  0  0  0  0  0  0  0  0  0  0  0
   35.7927  -18.6931   35.4313 C   0  0  0  0  0  0  0  0  0  0  0  0
   35.3039  -17.4647   35.7945 C   0  0  0  0  0  0  0  0  0  0  0  0
   33.9963  -17.1053   35.5464 C   0  0  0  0  0  0  0  0  0  0  0  0
   33.6058  -15.8567   35.9440 N   0  0  0  0  0  0  0  0  0  0  0  0
   34.4337  -15.0040   36.5477 C   0  0  0  0  0  0  0  0  0  0  0  0
   35.6897  -15.3762   36.7742 N   0  0  0  0  0  0  0  0  0  0  0  0
   36.1644  -16.5602   36.4293 C   0  0  0  0  0  0  0  0  0  0  0  0
   37.4685  -16.9311   36.6681 C   0  0  0  0  0  0  0  0  0  0  0  0
   37.9916  -18.1778   36.3081 C   0  0  0  0  0  0  0  0  0  0  0  0
   34.0589  -13.7099   36.9834 N   0  0  0  0  0  0  0  0  0  0  0  0
   34.5171  -12.6347   36.1484 C   0  0  0  0  0  0  0  0  0  0  0  0
   34.7524  -11.4153   37.0089 C   0  0  0  0  0  0  0  0  0  0  0  0
   33.4813  -10.8215   37.5368 C   0  0  0  0  0  0  0  0  0  0  0  0
   32.3111  -11.5811   37.2451 N   0  0  0  0  0  0  0  0  0  0  0  0
   32.0938  -12.7306   38.0680 C   0  0  0  0  0  0  0  0  0  0  0  0
   33.2797  -13.6258   38.1911 C   0  0  0  0  0  0  0  0  0  0  0  0
   31.1149  -10.7745   37.1118 C   0  0  0  0  0  0  0  0  0  0  0  0
   31.3127   -9.3529   37.5135 C   0  0  0  0  0  0  0  0  0  0  0  0
   30.0242  -11.3541   38.0218 C   0  0  0  0  0  0  0  0  0  0  0  0
   37.5656  -21.3730   36.1997 C   0  0  0  0  0  0  0  0  0  0  0  0
   37.5460  -20.2783   35.3029 O   0  0  0  0  0  0  0  0  0  0  0  0
   33.0904  -17.9781   34.9204 N   0  0  0  0  0  0  0  0  0  0  0  0
   33.0759  -18.1305   33.9131 H   0  0  0  0  0  0  0  0  0  0  0  0
   32.1299  -18.7039   35.7203 C   0  0  0  0  0  0  0  0  0  0  0  0
   30.9349  -19.0803   34.9248 C   0  0  0  0  0  0  0  0  0  0  0  0
   30.4521  -20.4880   35.0711 C   0  0  0  0  0  0  0  0  0  0  0  0
   31.4732  -21.4692   35.0177 N   0  0  0  0  0  0  0  0  0  0  0  0
   32.7455  -21.0709   35.4977 C   0  0  0  0  0  0  0  0  0  0  0  0
   32.7086  -19.8810   36.4099 C   0  0  0  0  0  0  0  0  0  0  0  0
   31.0772  -22.8044   35.2566 C   0  0  0  0  0  0  0  0  0  0  0  0
   29.5753  -22.8148   35.5340 C   0  0  0  0  0  0  0  0  0  0  0  0
   31.3549  -23.7171   34.1151 C   0  0  0  0  0  0  0  0  0  0  0  0
   39.2062  -18.4778   36.5482 O   0  0  0  0  0  0  0  0  0  0  0  0
   40.4271  -18.8135   36.8794 C   0  0  0  0  0  0  0  0  0  0  0  0
   40.4981  -19.8829   37.9458 C   0  0  0  0  0  0  0  0  0  0  0  0
   41.5687  -19.6502   38.9360 C   0  0  0  0  0  0  0  0  0  0  0  0
   41.9916  -20.7852   39.6811 N   0  0  0  0  0  0  0  0  0  0  0  0
   43.3644  -20.3807   40.1709 C   0  0  0  0  0  0  0  0  0  0  0  0
   43.3007  -19.0551   40.8461 C   0  0  0  0  0  0  0  0  0  0  0  0
   42.3460  -19.0394   42.0191 C   0  0  0  0  0  0  0  0  0  0  0  0
   41.0645  -19.7450   41.7344 C   0  0  0  0  0  0  0  0  0  0  0  0
   41.3043  -20.9884   40.9507 C   0  0  0  0  0  0  0  0  0  0  0  0
 21 22  1  0  0  0
 22  1  1  0  0  0
  1  2  2  0  0  0
  2  3  1  0  0  0
  3  4  2  0  0  0
  4 23  1  0  0  0
 23 25  1  0  0  0
 25 26  1  0  0  0
 26 27  1  0  0  0
 27 28  1  0  0  0
 28 29  1  0  0  0
 29 30  1  0  0  0
 28 31  1  0  0  0
 31 32  1  0  0  0
 31 33  1  0  0  0
  4  5  1  0  0  0
  5  6  2  0  0  0
  6  7  1  0  0  0
  7  8  2  0  0  0
  8  9  1  0  0  0
  9 10  2  0  0  0
 10 34  1  0  0  0
 34 35  1  0  0  0
 35 36  1  0  0  0
 36 37  1  0  0  0
 37 38  1  0  0  0
 38 39  1  0  0  0
 39 40  1  0  0  0
 40 41  1  0  0  0
 41 42  1  0  0  0
 42 43  1  0  0  0
  6 11  1  0  0  0
 11 12  1  0  0  0
 12 13  1  0  0  0
 13 14  1  0  0  0
 14 15  1  0  0  0
 15 16  1  0  0  0
 16 17  1  0  0  0
 15 18  1  0  0  0
 18 19  1  0  0  0
 18 20  1  0  0  0
 10  1  1  0  0  0
 43 38  1  0  0  0
 17 11  1  0  0  0
  8  3  1  0  0  0
 30 25  1  0  0  0
 23 24  1  0  0  0
M  END
> <minimizedAffinity>
-7.36232

> <CNNscore>
0.1993300468

> <CNNaffinity>
6.5276556015

> <CNN_VS>
1.3011579514

> <CNNaffinity_variance>
0.1651408225

$$$$
[H]c1c(OC([H])([H])C([H])([H])C([H])([H])N2C([H])([H])C([H])([H])C([H])([H])C([H])([H])C2([H])[H])c(OC([H])([H])[H])c([H])c2c(N([H])C3([H])C([H])([H])C([H])([H])N(C([H])(C([H])([H])[H])C([H])([H])[H])C([H])([H])C3([H])[H])nc(N3C([H])([H])C([H])([H])N(C([H])(C([H])([H])[H])C([H])([H])[H])C([H])([H])C([H])([H])C3([H])[H])nc12


 43 47  0  0  0  0  0  0  0  0999 V2000
   37.4427  -19.1255   35.6331 C   0  0  0  0  0  0  0  0  0  0  0  0
   36.1694  -18.7622   35.2416 C   0  0  0  0  0  0  0  0  0  0  0  0
   35.6286  -17.5609   35.6215 C   0  0  0  0  0  0  0  0  0  0  0  0
   34.3597  -17.1853   35.2351 C   0  0  0  0  0  0  0  0  0  0  0  0
   33.9120  -15.9662   35.6629 N   0  0  0  0  0  0  0  0  0  0  0  0
   34.6503  -15.1562   36.4216 C   0  0  0  0  0  0  0  0  0  0  0  0
   35.8709  -15.5431   36.7793 N   0  0  0  0  0  0  0  0  0  0  0  0
   36.3950  -16.7013   36.4188 C   0  0  0  0  0  0  0  0  0  0  0  0
   37.6617  -17.0877   36.7947 C   0  0  0  0  0  0  0  0  0  0  0  0
   38.2362  -18.3075   36.4211 C   0  0  0  0  0  0  0  0  0  0  0  0
   34.2130  -13.8943   36.8920 N   0  0  0  0  0  0  0  0  0  0  0  0
   34.5625  -12.7821   36.0528 C   0  0  0  0  0  0  0  0  0  0  0  0
   34.7575  -11.5598   36.9194 C   0  0  0  0  0  0  0  0  0  0  0  0
   33.4761  -11.0560   37.5118 C   0  0  0  0  0  0  0  0  0  0  0  0
   32.3453  -11.8868   37.2617 N   0  0  0  0  0  0  0  0  0  0  0  0
   32.2401  -13.0572   38.0771 C   0  0  0  0  0  0  0  0  0  0  0  0
   33.4857  -13.8747   38.1344 C   0  0  0  0  0  0  0  0  0  0  0  0
   31.0947  -11.1583   37.1935 C   0  0  0  0  0  0  0  0  0  0  0  0
   31.2368   -9.7090   37.5106 C   0  0  0  0  0  0  0  0  0  0  0  0
   30.1203  -11.7522   38.2188 C   0  0  0  0  0  0  0  0  0  0  0  0
   38.3413  -20.5707   33.8937 C   0  0  0  0  0  0  0  0  0  0  0  0
   37.9379  -20.3355   35.2297 O   0  0  0  0  0  0  0  0  0  0  0  0
   33.5470  -18.0138   34.4431 N   0  0  0  0  0  0  0  0  0  0  0  0
   33.7123  -18.1630   33.4489 H   0  0  0  0  0  0  0  0  0  0  0  0
   32.4234  -18.6963   35.0438 C   0  0  0  0  0  0  0  0  0  0  0  0
   31.6991  -19.5278   34.0505 C   0  0  0  0  0  0  0  0  0  0  0  0
   31.3437  -20.9168   34.4754 C   0  0  0  0  0  0  0  0  0  0  0  0
   32.3922  -21.6229   35.1160 N   0  0  0  0  0  0  0  0  0  0  0  0
   33.3125  -20.8376   35.8534 C   0  0  0  0  0  0  0  0  0  0  0  0
   32.7882  -19.4874   36.2425 C   0  0  0  0  0  0  0  0  0  0  0  0
   32.0706  -22.8999   35.6284 C   0  0  0  0  0  0  0  0  0  0  0  0
   31.1205  -22.7152   36.8099 C   0  0  0  0  0  0  0  0  0  0  0  0
   31.4191  -23.7908   34.6308 C   0  0  0  0  0  0  0  0  0  0  0  0
   39.4134  -18.6233   36.7918 O   0  0  0  0  0  0  0  0  0  0  0  0
   40.5991  -18.9216   37.2586 C   0  0  0  0  0  0  0  0  0  0  0  0
   40.8026  -20.3986   37.5095 C   0  0  0  0  0  0  0  0  0  0  0  0
   41.3360  -21.1220   36.3377 C   0  0  0  0  0  0  0  0  0  0  0  0
   42.0981  -20.3504   35.4178 N   0  0  0  0  0  0  0  0  0  0  0  0
   43.5072  -20.8572   35.6312 C   0  0  0  0  0  0  0  0  0  0  0  0
   43.5413  -22.3426   35.5317 C   0  0  0  0  0  0  0  0  0  0  0  0
   43.0418  -22.8529   34.1984 C   0  0  0  0  0  0  0  0  0  0  0  0
   41.8178  -22.1451   33.7271 C   0  0  0  0  0  0  0  0  0  0  0  0
   41.9037  -20.6860   34.0124 C   0  0  0  0  0  0  0  0  0  0  0  0
 21 22  1  0  0  0
 22  1  1  0  0  0
  1  2  2  0  0  0
  2  3  1  0  0  0
  3  4  2  0  0  0
  4 23  1  0  0  0
 23 25  1  0  0  0
 25 26  1  0  0  0
 26 27  1  0  0  0
 27 28  1  0  0  0
 28 29  1  0  0  0
 29 30  1  0  0  0
 28 31  1  0  0  0
 31 32  1  0  0  0
 31 33  1  0  0  0
  4  5  1  0  0  0
  5  6  2  0  0  0
  6  7  1  0  0  0
  7  8  2  0  0  0
  8  9  1  0  0  0
  9 10  2  0  0  0
 10 34  1  0  0  0
 34 35  1  0  0  0
 35 36  1  0  0  0
 36 37  1  0  0  0
 37 38  1  0  0  0
 38 39  1  0  0  0
 39 40  1  0  0  0
 40 41  1  0  0  0
 41 42  1  0  0  0
 42 43  1  0  0  0
  6 11  1  0  0  0
 11 12  1  0  0  0
 12 13  1  0  0  0
 13 14  1  0  0  0
 14 15  1  0  0  0
 15 16  1  0  0  0
 16 17  1  0  0  0
 15 18  1  0  0  0
 18 19  1  0  0  0
 18 20  1  0  0  0
 10  1  1  0  0  0
 43 38  1  0  0  0
 17 11  1  0  0  0
  8  3  1  0  0  0
 30 25  1  0  0  0
 23 24  1  0  0  0
M  END
> <minimizedAffinity>
-6.59174

> <CNNscore>
0.1729105562

> <CNNaffinity>
6.4833426476

> <CNN_VS>
1.1210384369

> <CNNaffinity_variance>
0.1892724186

$$$$
[H]c1c(OC([H])([H])C([H])([H])C([H])([H])N2C([H])([H])C([H])([H])C([H])([H])C2([H])[H])c(OC([H])([H])[H])c([H])c2c(N([H])C3([H])C([H])([H])C([H])([H])N(C([H])(C([H])([H])[H])C([H])([H])[H])C([H])([H])C3([H])[H])nc(N3C([H])([H])C([H])([H])N(C([H])([H])C4([H])C([H])([H])C([H])([H])C([H])([H])C([H])([H])C4([H])[H])C([H])([H])C([H])([H])C3([H])[H])nc12


 46 51  0  0  0  0  0  0  0  0999 V2000
   35.9136  -14.2759   36.6556 C   0  0  0  0  0  0  0  0  0  0  0  0
   36.2709  -15.6113   36.6666 C   0  0  0  0  0  0  0  0  0  0  0  0
   35.3747  -16.5874   36.2920 C   0  0  0  0  0  0  0  0  0  0  0  0
   35.6803  -17.9251   36.2856 C   0  0  0  0  0  0  0  0  0  0  0  0
   34.7234  -18.7719   35.9018 N   0  0  0  0  0  0  0  0  0  0  0  0
   33.4834  -18.3925   35.5226 C   0  0  0  0  0  0  0  0  0  0  0  0
   33.2151  -17.0762   35.5393 N   0  0  0  0  0  0  0  0  0  0  0  0
   34.1064  -16.1323   35.9092 C   0  0  0  0  0  0  0  0  0  0  0  0
   33.7591  -14.7948   35.9016 C   0  0  0  0  0  0  0  0  0  0  0  0
   34.6565  -13.8238   36.2762 C   0  0  0  0  0  0  0  0  0  0  0  0
   32.5013  -19.3612   35.1257 N   0  0  0  0  0  0  0  0  0  0  0  0
   31.1711  -18.9517   35.4600 C   0  0  0  0  0  0  0  0  0  0  0  0
   30.0688  -19.8347   35.0775 C   0  0  0  0  0  0  0  0  0  0  0  0
   30.3815  -21.3070   34.9249 C   0  0  0  0  0  0  0  0  0  0  0  0
   31.3550  -21.7943   35.8051 N   0  0  0  0  0  0  0  0  0  0  0  0
   32.7158  -21.7131   35.3391 C   0  0  0  0  0  0  0  0  0  0  0  0
   33.0231  -20.5378   34.4821 C   0  0  0  0  0  0  0  0  0  0  0  0
   31.1023  -22.8057   36.7176 C   0  0  0  0  0  0  0  0  0  0  0  0
   30.5785  -24.0919   36.1671 C   0  0  0  0  0  0  0  0  0  0  0  0
   30.8098  -24.3545   34.7311 C   0  0  0  0  0  0  0  0  0  0  0  0
   30.3521  -25.8135   34.4464 C   0  0  0  0  0  0  0  0  0  0  0  0
   28.8620  -25.8574   34.6322 C   0  0  0  0  0  0  0  0  0  0  0  0
   28.5890  -25.5243   36.1048 C   0  0  0  0  0  0  0  0  0  0  0  0
   29.0530  -24.1398   36.4150 C   0  0  0  0  0  0  0  0  0  0  0  0
   38.0250  -13.6726   37.7501 C   0  0  0  0  0  0  0  0  0  0  0  0
   36.8467  -13.3209   37.0402 O   0  0  0  0  0  0  0  0  0  0  0  0
   36.9403  -18.3999   36.6641 N   0  0  0  0  0  0  0  0  0  0  0  0
   37.1356  -18.5535   37.6900 H   0  0  0  0  0  0  0  0  0  0  0  0
   38.0425  -18.7142   35.7879 C   0  0  0  0  0  0  0  0  0  0  0  0
   37.7689  -19.8209   34.8257 C   0  0  0  0  0  0  0  0  0  0  0  0
   38.9313  -19.9321   33.8526 C   0  0  0  0  0  0  0  0  0  0  0  0
   39.9436  -18.9839   34.2149 N   0  0  0  0  0  0  0  0  0  0  0  0
   40.4225  -19.0853   35.5591 C   0  0  0  0  0  0  0  0  0  0  0  0
   39.2722  -19.0726   36.5837 C   0  0  0  0  0  0  0  0  0  0  0  0
   41.0805  -19.0170   33.3361 C   0  0  0  0  0  0  0  0  0  0  0  0
   42.3587  -18.5956   34.0042 C   0  0  0  0  0  0  0  0  0  0  0  0
   41.2318  -20.4204   32.7826 C   0  0  0  0  0  0  0  0  0  0  0  0
   34.3918  -12.4631   36.2976 O   0  0  0  0  0  0  0  0  0  0  0  0
   33.9824  -11.8570   37.5034 C   0  0  0  0  0  0  0  0  0  0  0  0
   32.7787  -12.6224   38.0499 C   0  0  0  0  0  0  0  0  0  0  0  0
   31.5405  -12.1320   37.3629 C   0  0  0  0  0  0  0  0  0  0  0  0
   30.6438  -11.5646   38.3237 N   0  0  0  0  0  0  0  0  0  0  0  0
   29.7784  -10.5730   37.7394 C   0  0  0  0  0  0  0  0  0  0  0  0
   28.4351  -11.2235   37.6127 C   0  0  0  0  0  0  0  0  0  0  0  0
   28.4150  -12.1139   38.8581 C   0  0  0  0  0  0  0  0  0  0  0  0
   29.8580  -12.5902   38.9415 C   0  0  0  0  0  0  0  0  0  0  0  0
 25 26  1  0  0  0
 26  1  1  0  0  0
  1  2  2  0  0  0
  2  3  1  0  0  0
  3  4  2  0  0  0
  4 27  1  0  0  0
 27 29  1  0  0  0
 29 30  1  0  0  0
 30 31  1  0  0  0
 31 32  1  0  0  0
 32 33  1  0  0  0
 33 34  1  0  0  0
 32 35  1  0  0  0
 35 36  1  0  0  0
 35 37  1  0  0  0
  4  5  1  0  0  0
  5  6  2  0  0  0
  6  7  1  0  0  0
  7  8  2  0  0  0
  8  9  1  0  0  0
  9 10  2  0  0  0
 10 38  1  0  0  0
 38 39  1  0  0  0
 39 40  1  0  0  0
 40 41  1  0  0  0
 41 42  1  0  0  0
 42 43  1  0  0  0
 43 44  1  0  0  0
 44 45  1  0  0  0
 45 46  1  0  0  0
  6 11  1  0  0  0
 11 12  1  0  0  0
 12 13  1  0  0  0
 13 14  1  0  0  0
 14 15  1  0  0  0
 15 18  1  0  0  0
 18 19  1  0  0  0
 19 20  1  0  0  0
 20 21  1  0  0  0
 21 22  1  0  0  0
 22 23  1  0  0  0
 23 24  1  0  0  0
 15 16  1  0  0  0
 16 17  1  0  0  0
 10  1  1  0  0  0
 46 42  1  0  0  0
 17 11  1  0  0  0
  8  3  1  0  0  0
 24 19  1  0  0  0
 34 29  1  0  0  0
 27 28  1  0  0  0
M  END
> <minimizedAffinity>
-8.52325

> <CNNscore>
0.5925946832

> <CNNaffinity>
7.6493911743

> <CNN_VS>
4.5329885483

> <CNNaffinity_variance>
0.1180521846

$$$$
[H]c1c(OC([H])([H])C([H])([H])C([H])([H])N2C([H])([H])C([H])([H])C([H])([H])C2([H])[H])c(OC([H])([H])[H])c([H])c2c(N([H])C3([H])C([H])([H])C([H])([H])N(C([H])(C([H])([H])[H])C([H])([H])[H])C([H])([H])C3([H])[H])nc(N3C([H])([H])C([H])([H])N(C([H])([H])C4([H])C([H])([H])C([H])([H])C([H])([H])C([H])([H])C4([H])[H])C([H])([H])C([H])([H])C3([H])[H])nc12


 46 51  0  0  0  0  0  0  0  0999 V2000
   36.1511  -14.1265   36.6596 C   0  0  0  0  0  0  0  0  0  0  0  0
   36.5487  -15.3129   36.0718 C   0  0  0  0  0  0  0  0  0  0  0  0
   35.6297  -16.2867   35.7500 C   0  0  0  0  0  0  0  0  0  0  0  0
   35.9732  -17.4798   35.1660 C   0  0  0  0  0  0  0  0  0  0  0  0
   34.9887  -18.3413   34.9041 N   0  0  0  0  0  0  0  0  0  0  0  0
   33.6861  -18.1092   35.1777 C   0  0  0  0  0  0  0  0  0  0  0  0
   33.3819  -16.9321   35.7491 N   0  0  0  0  0  0  0  0  0  0  0  0
   34.2960  -15.9880   36.0575 C   0  0  0  0  0  0  0  0  0  0  0  0
   33.9090  -14.7988   36.6452 C   0  0  0  0  0  0  0  0  0  0  0  0
   34.8293  -13.8295   36.9647 C   0  0  0  0  0  0  0  0  0  0  0  0
   32.6796  -19.0859   34.8718 N   0  0  0  0  0  0  0  0  0  0  0  0
   31.3571  -18.5942   35.1133 C   0  0  0  0  0  0  0  0  0  0  0  0
   30.2333  -19.4800   34.8077 C   0  0  0  0  0  0  0  0  0  0  0  0
   30.4953  -20.9695   34.8446 C   0  0  0  0  0  0  0  0  0  0  0  0
   31.4269  -21.3776   35.8067 N   0  0  0  0  0  0  0  0  0  0  0  0
   32.8013  -21.3998   35.3759 C   0  0  0  0  0  0  0  0  0  0  0  0
   33.1742  -20.3493   34.3921 C   0  0  0  0  0  0  0  0  0  0  0  0
   31.1133  -22.2606   36.8273 C   0  0  0  0  0  0  0  0  0  0  0  0
   29.6917  -22.7120   36.9121 C   0  0  0  0  0  0  0  0  0  0  0  0
   28.7947  -21.9505   37.8064 C   0  0  0  0  0  0  0  0  0  0  0  0
   27.3509  -22.4821   37.5782 C   0  0  0  0  0  0  0  0  0  0  0  0
   27.3137  -23.8989   38.0766 C   0  0  0  0  0  0  0  0  0  0  0  0
   28.2876  -24.7013   37.2039 C   0  0  0  0  0  0  0  0  0  0  0  0
   29.6784  -24.1870   37.3761 C   0  0  0  0  0  0  0  0  0  0  0  0
   38.2367  -13.4739   37.7752 C   0  0  0  0  0  0  0  0  0  0  0  0
   37.1088  -13.1684   36.9686 O   0  0  0  0  0  0  0  0  0  0  0  0
   37.2985  -17.7973   34.8512 N   0  0  0  0  0  0  0  0  0  0  0  0
   37.7107  -17.4174   33.9568 H   0  0  0  0  0  0  0  0  0  0  0  0
   38.1990  -18.6113   35.6309 C   0  0  0  0  0  0  0  0  0  0  0  0
   39.2282  -19.3340   34.8283 C   0  0  0  0  0  0  0  0  0  0  0  0
   40.2128  -20.0055   35.7719 C   0  0  0  0  0  0  0  0  0  0  0  0
   39.7964  -19.7840   37.1257 N   0  0  0  0  0  0  0  0  0  0  0  0
   38.4640  -20.2054   37.4317 C   0  0  0  0  0  0  0  0  0  0  0  0
   37.4344  -19.6259   36.4432 C   0  0  0  0  0  0  0  0  0  0  0  0
   40.6817  -20.3815   38.0875 C   0  0  0  0  0  0  0  0  0  0  0  0
   41.7727  -19.4552   38.5447 C   0  0  0  0  0  0  0  0  0  0  0  0
   39.8692  -20.8428   39.2816 C   0  0  0  0  0  0  0  0  0  0  0  0
   34.5280  -12.6114   37.5542 O   0  0  0  0  0  0  0  0  0  0  0  0
   33.3816  -11.9050   37.1351 C   0  0  0  0  0  0  0  0  0  0  0  0
   32.2696  -12.1288   38.1584 C   0  0  0  0  0  0  0  0  0  0  0  0
   30.9517  -11.8169   37.5171 C   0  0  0  0  0  0  0  0  0  0  0  0
   30.0132  -11.3980   38.5135 N   0  0  0  0  0  0  0  0  0  0  0  0
   28.8564  -10.7629   37.9371 C   0  0  0  0  0  0  0  0  0  0  0  0
   27.7478  -11.7659   38.0308 C   0  0  0  0  0  0  0  0  0  0  0  0
   28.0845  -12.4617   39.3525 C   0  0  0  0  0  0  0  0  0  0  0  0
   29.6051  -12.5116   39.3162 C   0  0  0  0  0  0  0  0  0  0  0  0
 25 26  1  0  0  0
 26  1  1  0  0  0
  1  2  2  0  0  0
  2  3  1  0  0  0
  3  4  2  0  0  0
  4 27  1  0  0  0
 27 29  1  0  0  0
 29 30  1  0  0  0
 30 31  1  0  0  0
 31 32  1  0  0  0
 32 33  1  0  0  0
 33 34  1  0  0  0
 32 35  1  0  0  0
 35 36  1  0  0  0
 35 37  1  0  0  0
  4  5  1  0  0  0
  5  6  2  0  0  0
  6  7  1  0  0  0
  7  8  2  0  0  0
  8  9  1  0  0  0
  9 10  2  0  0  0
 10 38  1  0  0  0
 38 39  1  0  0  0
 39 40  1  0  0  0
 40 41  1  0  0  0
 41 42  1  0  0  0
 42 43  1  0  0  0
 43 44  1  0  0  0
 44 45  1  0  0  0
 45 46  1  0  0  0
  6 11  1  0  0  0
 11 12  1  0  0  0
 12 13  1  0  0  0
 13 14  1  0  0  0
 14 15  1  0  0  0
 15 18  1  0  0  0
 18 19  1  0  0  0
 19 20  1  0  0  0
 20 21  1  0  0  0
 21 22  1  0  0  0
 22 23  1  0  0  0
 23 24  1  0  0  0
 15 16  1  0  0  0
 16 17  1  0  0  0
 10  1  1  0  0  0
 46 42  1  0  0  0
 17 11  1  0  0  0
  8  3  1  0  0  0
 24 19  1  0  0  0
 34 29  1  0  0  0
 27 28  1  0  0  0
M  END
> <minimizedAffinity>
-7.85461

> <CNNscore>
0.5802138448

> <CNNaffinity>
7.6453108788

> <CNN_VS>
4.4359149933

> <CNNaffinity_variance>
0.1309648454

$$$$
[H]c1c(OC([H])([H])C([H])([H])C([H])([H])N2C([H])([H])C([H])([H])C([H])([H])C2([H])[H])c(OC([H])([H])[H])c([H])c2c(N([H])C3([H])C([H])([H])C([H])([H])N(C([H])(C([H])([H])[H])C([H])([H])[H])C([H])([H])C3([H])[H])nc(N3C([H])([H])C([H])([H])N(C([H])([H])C4([H])C([H])([H])C([H])([H])C([H])([H])C([H])([H])C4([H])[H])C([H])([H])C([H])([H])C3([H])[H])nc12


 46 51  0  0  0  0  0  0  0  0999 V2000
   35.9424  -14.1386   36.8500 C   0  0  0  0  0  0  0  0  0  0  0  0
   36.2761  -15.4790   36.7934 C   0  0  0  0  0  0  0  0  0  0  0  0
   35.3725  -16.4154   36.3429 C   0  0  0  0  0  0  0  0  0  0  0  0
   35.6548  -17.7560   36.2676 C   0  0  0  0  0  0  0  0  0  0  0  0
   34.6930  -18.5617   35.8139 N   0  0  0  0  0  0  0  0  0  0  0  0
   33.4694  -18.1383   35.4280 C   0  0  0  0  0  0  0  0  0  0  0  0
   33.2238  -16.8202   35.5133 N   0  0  0  0  0  0  0  0  0  0  0  0
   34.1220  -15.9156   35.9570 C   0  0  0  0  0  0  0  0  0  0  0  0
   33.7984  -14.5736   36.0174 C   0  0  0  0  0  0  0  0  0  0  0  0
   34.7031  -13.6423   36.4676 C   0  0  0  0  0  0  0  0  0  0  0  0
   32.4806  -19.0645   34.9537 N   0  0  0  0  0  0  0  0  0  0  0  0
   31.2316  -18.9203   35.6379 C   0  0  0  0  0  0  0  0  0  0  0  0
   30.1238  -19.7826   35.2251 C   0  0  0  0  0  0  0  0  0  0  0  0
   30.4781  -21.1079   34.5872 C   0  0  0  0  0  0  0  0  0  0  0  0
   31.6424  -21.7056   35.0843 N   0  0  0  0  0  0  0  0  0  0  0  0
   32.8658  -21.3417   34.4165 C   0  0  0  0  0  0  0  0  0  0  0  0
   32.9177  -19.9469   33.9044 C   0  0  0  0  0  0  0  0  0  0  0  0
   31.6465  -22.9533   35.6867 C   0  0  0  0  0  0  0  0  0  0  0  0
   32.3104  -23.0530   37.0213 C   0  0  0  0  0  0  0  0  0  0  0  0
   32.7233  -21.7882   37.6649 C   0  0  0  0  0  0  0  0  0  0  0  0
   33.2047  -22.1346   39.1028 C   0  0  0  0  0  0  0  0  0  0  0  0
   34.4593  -22.9501   38.9684 C   0  0  0  0  0  0  0  0  0  0  0  0
   34.0704  -24.2453   38.2437 C   0  0  0  0  0  0  0  0  0  0  0  0
   33.5693  -23.9382   36.8715 C   0  0  0  0  0  0  0  0  0  0  0  0
   38.1753  -13.6323   37.7320 C   0  0  0  0  0  0  0  0  0  0  0  0
   36.8824  -13.2246   37.3100 O   0  0  0  0  0  0  0  0  0  0  0  0
   36.8967  -18.2751   36.6479 N   0  0  0  0  0  0  0  0  0  0  0  0
   37.0769  -18.4563   37.6720 H   0  0  0  0  0  0  0  0  0  0  0  0
   37.9985  -18.6022   35.7758 C   0  0  0  0  0  0  0  0  0  0  0  0
   37.6913  -19.6525   34.7619 C   0  0  0  0  0  0  0  0  0  0  0  0
   38.8642  -19.7755   33.8029 C   0  0  0  0  0  0  0  0  0  0  0  0
   39.9123  -18.8918   34.2219 N   0  0  0  0  0  0  0  0  0  0  0  0
   40.3626  -19.0730   35.5675 C   0  0  0  0  0  0  0  0  0  0  0  0
   39.1965  -19.0511   36.5739 C   0  0  0  0  0  0  0  0  0  0  0  0
   41.0616  -18.9398   33.3601 C   0  0  0  0  0  0  0  0  0  0  0  0
   42.3544  -18.6821   34.0811 C   0  0  0  0  0  0  0  0  0  0  0  0
   41.1136  -20.2974   32.6871 C   0  0  0  0  0  0  0  0  0  0  0  0
   34.4617  -12.2802   36.5602 O   0  0  0  0  0  0  0  0  0  0  0  0
   33.7895  -11.7722   37.6911 C   0  0  0  0  0  0  0  0  0  0  0  0
   32.3246  -11.5411   37.3249 C   0  0  0  0  0  0  0  0  0  0  0  0
   31.4627  -12.3612   38.2360 C   0  0  0  0  0  0  0  0  0  0  0  0
   30.0822  -12.1405   37.9284 N   0  0  0  0  0  0  0  0  0  0  0  0
   29.2107  -12.6166   38.9712 C   0  0  0  0  0  0  0  0  0  0  0  0
   28.7281  -11.3956   39.6923 C   0  0  0  0  0  0  0  0  0  0  0  0
   28.6312  -10.3881   38.5435 C   0  0  0  0  0  0  0  0  0  0  0  0
   29.8386  -10.7495   37.6905 C   0  0  0  0  0  0  0  0  0  0  0  0
 25 26  1  0  0  0
 26  1  1  0  0  0
  1  2  2  0  0  0
  2  3  1  0  0  0
  3  4  2  0  0  0
  4 27  1  0  0  0
 27 29  1  0  0  0
 29 30  1  0  0  0
 30 31  1  0  0  0
 31 32  1  0  0  0
 32 33  1  0  0  0
 33 34  1  0  0  0
 32 35  1  0  0  0
 35 36  1  0  0  0
 35 37  1  0  0  0
  4  5  1  0  0  0
  5  6  2  0  0  0
  6  7  1  0  0  0
  7  8  2  0  0  0
  8  9  1  0  0  0
  9 10  2  0  0  0
 10 38  1  0  0  0
 38 39  1  0  0  0
 39 40  1  0  0  0
 40 41  1  0  0  0
 41 42  1  0  0  0
 42 43  1  0  0  0
 43 44  1  0  0  0
 44 45  1  0  0  0
 45 46  1  0  0  0
  6 11  1  0  0  0
 11 12  1  0  0  0
 12 13  1  0  0  0
 13 14  1  0  0  0
 14 15  1  0  0  0
 15 18  1  0  0  0
 18 19  1  0  0  0
 19 20  1  0  0  0
 20 21  1  0  0  0
 21 22  1  0  0  0
 22 23  1  0  0  0
 23 24  1  0  0  0
 15 16  1  0  0  0
 16 17  1  0  0  0
 10  1  1  0  0  0
 46 42  1  0  0  0
 17 11  1  0  0  0
  8  3  1  0  0  0
 24 19  1  0  0  0
 34 29  1  0  0  0
 27 28  1  0  0  0
M  END
> <minimizedAffinity>
-8.02260

> <CNNscore>
0.5052804947

> <CNNaffinity>
7.7778854370

> <CNN_VS>
3.9300138950

> <CNNaffinity_variance>
0.0475270934

$$$$
[H]c1c(OC([H])([H])C([H])([H])C([H])([H])N2C([H])([H])C([H])([H])C([H])([H])C2([H])[H])c(OC([H])([H])[H])c([H])c2c(N([H])C3([H])C([H])([H])C([H])([H])N(C([H])(C([H])([H])[H])C([H])([H])[H])C([H])([H])C3([H])[H])nc(N3C([H])([H])C([H])([H])N(C([H])([H])C4([H])C([H])([H])C([H])([H])C([H])([H])C([H])([H])C4([H])[H])C([H])([H])C([H])([H])C3([H])[H])nc12


 46 51  0  0  0  0  0  0  0  0999 V2000
   36.0432  -13.9708   36.6872 C   0  0  0  0  0  0  0  0  0  0  0  0
   36.4802  -15.1760   36.1699 C   0  0  0  0  0  0  0  0  0  0  0  0
   35.5844  -16.1532   35.7969 C   0  0  0  0  0  0  0  0  0  0  0  0
   35.9671  -17.3647   35.2789 C   0  0  0  0  0  0  0  0  0  0  0  0
   35.0018  -18.2275   34.9566 N   0  0  0  0  0  0  0  0  0  0  0  0
   33.6825  -17.9798   35.1091 C   0  0  0  0  0  0  0  0  0  0  0  0
   33.3398  -16.7848   35.6185 N   0  0  0  0  0  0  0  0  0  0  0  0
   34.2316  -15.8377   35.9785 C   0  0  0  0  0  0  0  0  0  0  0  0
   33.8052  -14.6297   36.4965 C   0  0  0  0  0  0  0  0  0  0  0  0
   34.7024  -13.6572   36.8675 C   0  0  0  0  0  0  0  0  0  0  0  0
   32.6980  -18.9588   34.7444 N   0  0  0  0  0  0  0  0  0  0  0  0
   31.4246  -18.6949   35.3426 C   0  0  0  0  0  0  0  0  0  0  0  0
   30.3200  -19.5998   35.0233 C   0  0  0  0  0  0  0  0  0  0  0  0
   30.6771  -21.0130   34.6183 C   0  0  0  0  0  0  0  0  0  0  0  0
   31.8094  -21.5369   35.2533 N   0  0  0  0  0  0  0  0  0  0  0  0
   33.0654  -21.2963   34.5900 C   0  0  0  0  0  0  0  0  0  0  0  0
   33.1625  -20.0007   33.8672 C   0  0  0  0  0  0  0  0  0  0  0  0
   31.7672  -22.6736   36.0443 C   0  0  0  0  0  0  0  0  0  0  0  0
   33.0774  -23.2069   36.5247 C   0  0  0  0  0  0  0  0  0  0  0  0
   33.2373  -24.6759   36.5542 C   0  0  0  0  0  0  0  0  0  0  0  0
   34.7243  -24.9742   36.8992 C   0  0  0  0  0  0  0  0  0  0  0  0
   34.9560  -24.5122   38.3098 C   0  0  0  0  0  0  0  0  0  0  0  0
   34.7330  -22.9943   38.3213 C   0  0  0  0  0  0  0  0  0  0  0  0
   33.3204  -22.6777   37.9571 C   0  0  0  0  0  0  0  0  0  0  0  0
   38.2546  -13.3667   37.5615 C   0  0  0  0  0  0  0  0  0  0  0  0
   36.9785  -13.0100   37.0513 O   0  0  0  0  0  0  0  0  0  0  0  0
   37.3121  -17.6991   35.0898 N   0  0  0  0  0  0  0  0  0  0  0  0
   37.9811  -16.9455   34.7757 H   0  0  0  0  0  0  0  0  0  0  0  0
   37.9130  -18.9970   35.2788 C   0  0  0  0  0  0  0  0  0  0  0  0
   38.7518  -19.1151   36.5068 C   0  0  0  0  0  0  0  0  0  0  0  0
   39.1761  -20.5642   36.6813 C   0  0  0  0  0  0  0  0  0  0  0  0
   38.6904  -21.3356   35.5750 N   0  0  0  0  0  0  0  0  0  0  0  0
   39.0841  -20.8653   34.2826 C   0  0  0  0  0  0  0  0  0  0  0  0
   38.7606  -19.3716   34.0892 C   0  0  0  0  0  0  0  0  0  0  0  0
   39.0421  -22.7262   35.6661 C   0  0  0  0  0  0  0  0  0  0  0  0
   38.0959  -23.5224   36.5196 C   0  0  0  0  0  0  0  0  0  0  0  0
   39.0871  -23.3133   34.2689 C   0  0  0  0  0  0  0  0  0  0  0  0
   34.3614  -12.4208   37.3939 O   0  0  0  0  0  0  0  0  0  0  0  0
   33.2535  -12.3199   38.2607 C   0  0  0  0  0  0  0  0  0  0  0  0
   32.3153  -11.2379   37.7291 C   0  0  0  0  0  0  0  0  0  0  0  0
   30.9948  -11.8630   37.3961 C   0  0  0  0  0  0  0  0  0  0  0  0
   29.9955  -10.8467   37.2630 N   0  0  0  0  0  0  0  0  0  0  0  0
   28.7186  -11.2703   37.7764 C   0  0  0  0  0  0  0  0  0  0  0  0
   28.5480  -10.5640   39.0863 C   0  0  0  0  0  0  0  0  0  0  0  0
   29.2361   -9.2271   38.7976 C   0  0  0  0  0  0  0  0  0  0  0  0
   30.4106   -9.6469   37.9255 C   0  0  0  0  0  0  0  0  0  0  0  0
 25 26  1  0  0  0
 26  1  1  0  0  0
  1  2  2  0  0  0
  2  3  1  0  0  0
  3  4  2  0  0  0
  4 27  1  0  0  0
 27 29  1  0  0  0
 29 30  1  0  0  0
 30 31  1  0  0  0
 31 32  1  0  0  0
 32 33  1  0  0  0
 33 34  1  0  0  0
 32 35  1  0  0  0
 35 36  1  0  0  0
 35 37  1  0  0  0
  4  5  1  0  0  0
  5  6  2  0  0  0
  6  7  1  0  0  0
  7  8  2  0  0  0
  8  9  1  0  0  0
  9 10  2  0  0  0
 10 38  1  0  0  0
 38 39  1  0  0  0
 39 40  1  0  0  0
 40 41  1  0  0  0
 41 42  1  0  0  0
 42 43  1  0  0  0
 43 44  1  0  0  0
 44 45  1  0  0  0
 45 46  1  0  0  0
  6 11  1  0  0  0
 11 12  1  0  0  0
 12 13  1  0  0  0
 13 14  1  0  0  0
 14 15  1  0  0  0
 15 18  1  0  0  0
 18 19  1  0  0  0
 19 20  1  0  0  0
 20 21  1  0  0  0
 21 22  1  0  0  0
 22 23  1  0  0  0
 23 24  1  0  0  0
 15 16  1  0  0  0
 16 17  1  0  0  0
 10  1  1  0  0  0
 46 42  1  0  0  0
 17 11  1  0  0  0
  8  3  1  0  0  0
 24 19  1  0  0  0
 34 29  1  0  0  0
 27 28  1  0  0  0
M  END
> <minimizedAffinity>
-7.99132

> <CNNscore>
0.4208014607

> <CNNaffinity>
7.4873399734

> <CNN_VS>
3.1506836414

> <CNNaffinity_variance>
0.0625792295

$$$$
[H]c1c(OC([H])([H])C([H])([H])C([H])([H])N2C([H])([H])C([H])([H])C([H])([H])C2([H])[H])c(OC([H])([H])[H])c([H])c2c(N([H])C3([H])C([H])([H])C([H])([H])N(C([H])(C([H])([H])[H])C([H])([H])[H])C([H])([H])C3([H])[H])nc(N3C([H])([H])C([H])([H])N(C([H])([H])C4([H])C([H])([H])C([H])([H])C([H])([H])C([H])([H])C4([H])[H])C([H])([H])C([H])([H])C3([H])[H])nc12


 46 51  0  0  0  0  0  0  0  0999 V2000
   36.2267  -14.1426   36.9223 C   0  0  0  0  0  0  0  0  0  0  0  0
   36.8523  -15.3662   36.7719 C   0  0  0  0  0  0  0  0  0  0  0  0
   36.1354  -16.4907   36.4284 C   0  0  0  0  0  0  0  0  0  0  0  0
   36.7088  -17.7267   36.2671 C   0  0  0  0  0  0  0  0  0  0  0  0
   35.9050  -18.7379   35.9335 N   0  0  0  0  0  0  0  0  0  0  0  0
   34.5724  -18.6166   35.7471 C   0  0  0  0  0  0  0  0  0  0  0  0
   34.0409  -17.3939   35.9121 N   0  0  0  0  0  0  0  0  0  0  0  0
   34.7590  -16.3016   36.2486 C   0  0  0  0  0  0  0  0  0  0  0  0
   34.1434  -15.0740   36.4014 C   0  0  0  0  0  0  0  0  0  0  0  0
   34.8624  -13.9542   36.7442 C   0  0  0  0  0  0  0  0  0  0  0  0
   33.7677  -19.7514   35.3930 N   0  0  0  0  0  0  0  0  0  0  0  0
   33.4692  -19.7879   33.9935 C   0  0  0  0  0  0  0  0  0  0  0  0
   32.6833  -20.9159   33.4925 C   0  0  0  0  0  0  0  0  0  0  0  0
   31.7599  -21.6063   34.4720 C   0  0  0  0  0  0  0  0  0  0  0  0
   31.1850  -20.7631   35.4304 N   0  0  0  0  0  0  0  0  0  0  0  0
   31.9389  -20.5930   36.6461 C   0  0  0  0  0  0  0  0  0  0  0  0
   33.4166  -20.6209   36.4846 C   0  0  0  0  0  0  0  0  0  0  0  0
   29.8155  -20.5941   35.5559 C   0  0  0  0  0  0  0  0  0  0  0  0
   29.0876  -21.6007   36.3858 C   0  0  0  0  0  0  0  0  0  0  0  0
   28.3790  -22.6808   35.6677 C   0  0  0  0  0  0  0  0  0  0  0  0
   27.8717  -23.6925   36.7347 C   0  0  0  0  0  0  0  0  0  0  0  0
   26.8229  -22.9914   37.5504 C   0  0  0  0  0  0  0  0  0  0  0  0
   27.5203  -21.8227   38.2588 C   0  0  0  0  0  0  0  0  0  0  0  0
   28.0500  -20.8531   37.2549 C   0  0  0  0  0  0  0  0  0  0  0  0
   38.3953  -13.1068   37.4168 C   0  0  0  0  0  0  0  0  0  0  0  0
   36.9851  -13.0312   37.2690 O   0  0  0  0  0  0  0  0  0  0  0  0
   38.0807  -17.9365   36.4420 N   0  0  0  0  0  0  0  0  0  0  0  0
   38.6109  -17.2975   37.0936 H   0  0  0  0  0  0  0  0  0  0  0  0
   38.8839  -18.9576   35.8147 C   0  0  0  0  0  0  0  0  0  0  0  0
   40.2798  -19.0490   36.3331 C   0  0  0  0  0  0  0  0  0  0  0  0
   40.9575  -20.2655   35.7237 C   0  0  0  0  0  0  0  0  0  0  0  0
   40.0604  -20.8923   34.7977 N   0  0  0  0  0  0  0  0  0  0  0  0
   39.5610  -20.0427   33.7608 C   0  0  0  0  0  0  0  0  0  0  0  0
   38.9462  -18.7468   34.3229 C   0  0  0  0  0  0  0  0  0  0  0  0
   40.6225  -22.0618   34.1796 C   0  0  0  0  0  0  0  0  0  0  0  0
   42.0474  -22.3180   34.5815 C   0  0  0  0  0  0  0  0  0  0  0  0
   39.7678  -23.2628   34.5343 C   0  0  0  0  0  0  0  0  0  0  0  0
   34.3258  -12.6876   36.9173 O   0  0  0  0  0  0  0  0  0  0  0  0
   33.5144  -12.4279   38.0411 C   0  0  0  0  0  0  0  0  0  0  0  0
   32.5680  -11.2772   37.7039 C   0  0  0  0  0  0  0  0  0  0  0  0
   31.2271  -11.8423   37.3461 C   0  0  0  0  0  0  0  0  0  0  0  0
   30.2924  -10.7792   37.1337 N   0  0  0  0  0  0  0  0  0  0  0  0
   29.0017  -11.0691   37.7028 C   0  0  0  0  0  0  0  0  0  0  0  0
   28.9036  -10.2361   38.9439 C   0  0  0  0  0  0  0  0  0  0  0  0
   29.6698   -8.9793   38.5223 C   0  0  0  0  0  0  0  0  0  0  0  0
   30.7968   -9.5535   37.6760 C   0  0  0  0  0  0  0  0  0  0  0  0
 25 26  1  0  0  0
 26  1  1  0  0  0
  1  2  2  0  0  0
  2  3  1  0  0  0
  3  4  2  0  0  0
  4 27  1  0  0  0
 27 29  1  0  0  0
 29 30  1  0  0  0
 30 31  1  0  0  0
 31 32  1  0  0  0
 32 33  1  0  0  0
 33 34  1  0  0  0
 32 35  1  0  0  0
 35 36  1  0  0  0
 35 37  1  0  0  0
  4  5  1  0  0  0
  5  6  2  0  0  0
  6  7  1  0  0  0
  7  8  2  0  0  0
  8  9  1  0  0  0
  9 10  2  0  0  0
 10 38  1  0  0  0
 38 39  1  0  0  0
 39 40  1  0  0  0
 40 41  1  0  0  0
 41 42  1  0  0  0
 42 43  1  0  0  0
 43 44  1  0  0  0
 44 45  1  0  0  0
 45 46  1  0  0  0
  6 11  1  0  0  0
 11 12  1  0  0  0
 12 13  1  0  0  0
 13 14  1  0  0  0
 14 15  1  0  0  0
 15 18  1  0  0  0
 18 19  1  0  0  0
 19 20  1  0  0  0
 20 21  1  0  0  0
 21 22  1  0  0  0
 22 23  1  0  0  0
 23 24  1  0  0  0
 15 16  1  0  0  0
 16 17  1  0  0  0
 10  1  1  0  0  0
 46 42  1  0  0  0
 17 11  1  0  0  0
  8  3  1  0  0  0
 24 19  1  0  0  0
 34 29  1  0  0  0
 27 28  1  0  0  0
M  END
> <minimizedAffinity>
-8.70029

> <CNNscore>
0.3995538652

> <CNNaffinity>
7.2773637772

> <CNN_VS>
2.9076988697

> <CNNaffinity_variance>
0.0717388019

$$$$
[H]c1c(OC([H])([H])C([H])([H])C([H])([H])N2C([H])([H])C([H])([H])C([H])([H])C2([H])[H])c(OC([H])([H])[H])c([H])c2c(N([H])C3([H])C([H])([H])C([H])([H])N(C([H])(C([H])([H])[H])C([H])([H])[H])C([H])([H])C3([H])[H])nc(N3C([H])([H])C([H])([H])N(C([H])([H])C4([H])C([H])([H])C([H])([H])C([H])([H])C([H])([H])C4([H])[H])C([H])([H])C([H])([H])C3([H])[H])nc12


 46 51  0  0  0  0  0  0  0  0999 V2000
   36.7397  -21.6513   37.9307 C   0  0  0  0  0  0  0  0  0  0  0  0
   37.6942  -20.7280   37.5464 C   0  0  0  0  0  0  0  0  0  0  0  0
   37.3480  -19.4235   37.2730 C   0  0  0  0  0  0  0  0  0  0  0  0
   38.2569  -18.4702   36.8885 C   0  0  0  0  0  0  0  0  0  0  0  0
   37.7949  -17.2411   36.6520 N   0  0  0  0  0  0  0  0  0  0  0  0
   36.4970  -16.8843   36.7682 C   0  0  0  0  0  0  0  0  0  0  0  0
   35.6318  -17.8400   37.1466 N   0  0  0  0  0  0  0  0  0  0  0  0
   35.9887  -19.1145   37.4113 C   0  0  0  0  0  0  0  0  0  0  0  0
   35.0424  -20.0450   37.7962 C   0  0  0  0  0  0  0  0  0  0  0  0
   35.3920  -21.3459   38.0681 C   0  0  0  0  0  0  0  0  0  0  0  0
   36.0704  -15.5417   36.4925 N   0  0  0  0  0  0  0  0  0  0  0  0
   36.8847  -14.5682   37.1545 C   0  0  0  0  0  0  0  0  0  0  0  0
   36.5788  -13.1552   36.9287 C   0  0  0  0  0  0  0  0  0  0  0  0
   35.1565  -12.8065   36.5492 C   0  0  0  0  0  0  0  0  0  0  0  0
   34.1773  -13.6182   37.1343 N   0  0  0  0  0  0  0  0  0  0  0  0
   33.8202  -14.8002   36.3922 C   0  0  0  0  0  0  0  0  0  0  0  0
   34.9290  -15.4252   35.6239 C   0  0  0  0  0  0  0  0  0  0  0  0
   33.1854  -13.1184   37.9625 C   0  0  0  0  0  0  0  0  0  0  0  0
   32.5238  -11.8509   37.5293 C   0  0  0  0  0  0  0  0  0  0  0  0
   33.1055  -10.5845   38.0214 C   0  0  0  0  0  0  0  0  0  0  0  0
   32.3743   -9.4227   37.2901 C   0  0  0  0  0  0  0  0  0  0  0  0
   30.9485   -9.4254   37.7635 C   0  0  0  0  0  0  0  0  0  0  0  0
   30.3370  -10.7610   37.3204 C   0  0  0  0  0  0  0  0  0  0  0  0
   31.0456  -11.8970   37.9804 C   0  0  0  0  0  0  0  0  0  0  0  0
   37.2189  -23.9349   37.1719 C   0  0  0  0  0  0  0  0  0  0  0  0
   37.1291  -22.9580   38.1984 O   0  0  0  0  0  0  0  0  0  0  0  0
   39.6181  -18.7582   36.7446 N   0  0  0  0  0  0  0  0  0  0  0  0
   40.3040  -18.3018   37.4044 H   0  0  0  0  0  0  0  0  0  0  0  0
   40.2156  -19.6347   35.7668 C   0  0  0  0  0  0  0  0  0  0  0  0
   41.6847  -19.4476   35.5874 C   0  0  0  0  0  0  0  0  0  0  0  0
   42.2164  -20.5386   34.6721 C   0  0  0  0  0  0  0  0  0  0  0  0
   41.1252  -21.3531   34.2239 N   0  0  0  0  0  0  0  0  0  0  0  0
   40.0629  -20.6481   33.5750 C   0  0  0  0  0  0  0  0  0  0  0  0
   39.5501  -19.4692   34.4238 C   0  0  0  0  0  0  0  0  0  0  0  0
   41.5437  -22.4197   33.3560 C   0  0  0  0  0  0  0  0  0  0  0  0
   42.9399  -22.8990   33.6364 C   0  0  0  0  0  0  0  0  0  0  0  0
   40.5701  -23.5739   33.4928 C   0  0  0  0  0  0  0  0  0  0  0  0
   34.5091  -22.3406   38.4593 O   0  0  0  0  0  0  0  0  0  0  0  0
   33.2987  -21.9828   39.0885 C   0  0  0  0  0  0  0  0  0  0  0  0
   33.5372  -21.9032   40.5952 C   0  0  0  0  0  0  0  0  0  0  0  0
   34.2622  -23.1381   41.0365 C   0  0  0  0  0  0  0  0  0  0  0  0
   35.1558  -22.8204   42.1087 N   0  0  0  0  0  0  0  0  0  0  0  0
   36.5362  -22.8995   41.7067 C   0  0  0  0  0  0  0  0  0  0  0  0
   37.0039  -21.4837   41.5631 C   0  0  0  0  0  0  0  0  0  0  0  0
   36.2142  -20.7930   42.6782 C   0  0  0  0  0  0  0  0  0  0  0  0
   34.8750  -21.5139   42.6236 C   0  0  0  0  0  0  0  0  0  0  0  0
 25 26  1  0  0  0
 26  1  1  0  0  0
  1  2  2  0  0  0
  2  3  1  0  0  0
  3  4  2  0  0  0
  4 27  1  0  0  0
 27 29  1  0  0  0
 29 30  1  0  0  0
 30 31  1  0  0  0
 31 32  1  0  0  0
 32 33  1  0  0  0
 33 34  1  0  0  0
 32 35  1  0  0  0
 35 36  1  0  0  0
 35 37  1  0  0  0
  4  5  1  0  0  0
  5  6  2  0  0  0
  6  7  1  0  0  0
  7  8  2  0  0  0
  8  9  1  0  0  0
  9 10  2  0  0  0
 10 38  1  0  0  0
 38 39  1  0  0  0
 39 40  1  0  0  0
 40 41  1  0  0  0
 41 42  1  0  0  0
 42 43  1  0  0  0
 43 44  1  0  0  0
 44 45  1  0  0  0
 45 46  1  0  0  0
  6 11  1  0  0  0
 11 12  1  0  0  0
 12 13  1  0  0  0
 13 14  1  0  0  0
 14 15  1  0  0  0
 15 18  1  0  0  0
 18 19  1  0  0  0
 19 20  1  0  0  0
 20 21  1  0  0  0
 21 22  1  0  0  0
 22 23  1  0  0  0
 23 24  1  0  0  0
 15 16  1  0  0  0
 16 17  1  0  0  0
 10  1  1  0  0  0
 46 42  1  0  0  0
 17 11  1  0  0  0
  8  3  1  0  0  0
 24 19  1  0  0  0
 34 29  1  0  0  0
 27 28  1  0  0  0
M  END
> <minimizedAffinity>
-6.84882

> <CNNscore>
0.1144629121

> <CNNaffinity>
6.6763763428

> <CNN_VS>
0.7641974688

> <CNNaffinity_variance>
0.3141537309

$$$$
[H]c1c(OC([H])([H])C([H])([H])C([H])([H])N2C([H])([H])C([H])([H])C([H])([H])C2([H])[H])c(OC([H])([H])[H])c([H])c2c(N([H])C3([H])C([H])([H])C([H])([H])N(C([H])(C([H])([H])[H])C([H])([H])[H])C([H])([H])C3([H])[H])nc(N3C([H])([H])C([H])([H])N(C([H])([H])C4([H])C([H])([H])C([H])([H])C([H])([H])C([H])([H])C4([H])[H])C([H])([H])C([H])([H])C3([H])[H])nc12


 46 51  0  0  0  0  0  0  0  0999 V2000
   32.3336  -21.6530   37.0677 C   0  0  0  0  0  0  0  0  0  0  0  0
   33.5299  -20.9626   37.0084 C   0  0  0  0  0  0  0  0  0  0  0  0
   34.4642  -21.0772   38.0135 C   0  0  0  0  0  0  0  0  0  0  0  0
   35.6652  -20.4138   38.0016 C   0  0  0  0  0  0  0  0  0  0  0  0
   36.4848  -20.6086   39.0362 N   0  0  0  0  0  0  0  0  0  0  0  0
   36.2037  -21.4134   40.0843 C   0  0  0  0  0  0  0  0  0  0  0  0
   35.0202  -22.0491   40.0666 N   0  0  0  0  0  0  0  0  0  0  0  0
   34.1158  -21.9257   39.0723 C   0  0  0  0  0  0  0  0  0  0  0  0
   32.9171  -22.6114   39.1220 C   0  0  0  0  0  0  0  0  0  0  0  0
   31.9873  -22.4943   38.1168 C   0  0  0  0  0  0  0  0  0  0  0  0
   37.1331  -21.5718   41.1667 N   0  0  0  0  0  0  0  0  0  0  0  0
   36.6992  -20.9023   42.3552 C   0  0  0  0  0  0  0  0  0  0  0  0
   37.5402  -21.0143   43.5474 C   0  0  0  0  0  0  0  0  0  0  0  0
   39.0147  -21.2760   43.3328 C   0  0  0  0  0  0  0  0  0  0  0  0
   39.5551  -20.6824   42.1858 N   0  0  0  0  0  0  0  0  0  0  0  0
   39.4954  -21.4753   40.9845 C   0  0  0  0  0  0  0  0  0  0  0  0
   38.3023  -22.3541   40.8638 C   0  0  0  0  0  0  0  0  0  0  0  0
   40.5876  -19.7598   42.2341 C   0  0  0  0  0  0  0  0  0  0  0  0
   41.8235  -20.0936   41.4640 C   0  0  0  0  0  0  0  0  0  0  0  0
   43.0597  -20.3249   42.2404 C   0  0  0  0  0  0  0  0  0  0  0  0
   44.1421  -20.8372   41.2479 C   0  0  0  0  0  0  0  0  0  0  0  0
   44.4574  -19.7069   40.3098 C   0  0  0  0  0  0  0  0  0  0  0  0
   43.1692  -19.4025   39.5340 C   0  0  0  0  0  0  0  0  0  0  0  0
   42.1003  -18.9428   40.4691 C   0  0  0  0  0  0  0  0  0  0  0  0
   31.6746  -22.0202   34.7329 C   0  0  0  0  0  0  0  0  0  0  0  0
   31.4169  -21.5113   36.0332 O   0  0  0  0  0  0  0  0  0  0  0  0
   36.0320  -19.5623   36.9542 N   0  0  0  0  0  0  0  0  0  0  0  0
   36.4167  -19.9875   36.0680 H   0  0  0  0  0  0  0  0  0  0  0  0
   35.9446  -18.1223   36.9423 C   0  0  0  0  0  0  0  0  0  0  0  0
   34.9832  -17.5713   35.9435 C   0  0  0  0  0  0  0  0  0  0  0  0
   34.8543  -16.0713   36.1528 C   0  0  0  0  0  0  0  0  0  0  0  0
   35.7475  -15.6611   37.1964 N   0  0  0  0  0  0  0  0  0  0  0  0
   37.1207  -16.0086   36.9968 C   0  0  0  0  0  0  0  0  0  0  0  0
   37.2972  -17.5071   36.6863 C   0  0  0  0  0  0  0  0  0  0  0  0
   35.6823  -14.2507   37.4654 C   0  0  0  0  0  0  0  0  0  0  0  0
   37.0256  -13.5784   37.4340 C   0  0  0  0  0  0  0  0  0  0  0  0
   34.7614  -13.6001   36.4517 C   0  0  0  0  0  0  0  0  0  0  0  0
   30.7634  -23.1448   38.0871 O   0  0  0  0  0  0  0  0  0  0  0  0
   30.1388  -23.4992   39.3009 C   0  0  0  0  0  0  0  0  0  0  0  0
   28.6404  -23.2303   39.1750 C   0  0  0  0  0  0  0  0  0  0  0  0
   28.4229  -22.1841   38.1246 C   0  0  0  0  0  0  0  0  0  0  0  0
   27.5328  -22.6815   37.1198 N   0  0  0  0  0  0  0  0  0  0  0  0
   28.1597  -22.7511   35.8253 C   0  0  0  0  0  0  0  0  0  0  0  0
   28.4420  -24.2021   35.5832 C   0  0  0  0  0  0  0  0  0  0  0  0
   27.2401  -24.8592   36.2672 C   0  0  0  0  0  0  0  0  0  0  0  0
   27.0350  -23.9730   37.4873 C   0  0  0  0  0  0  0  0  0  0  0  0
 25 26  1  0  0  0
 26  1  1  0  0  0
  1  2  2  0  0  0
  2  3  1  0  0  0
  3  4  2  0  0  0
  4 27  1  0  0  0
 27 29  1  0  0  0
 29 30  1  0  0  0
 30 31  1  0  0  0
 31 32  1  0  0  0
 32 33  1  0  0  0
 33 34  1  0  0  0
 32 35  1  0  0  0
 35 36  1  0  0  0
 35 37  1  0  0  0
  4  5  1  0  0  0
  5  6  2  0  0  0
  6  7  1  0  0  0
  7  8  2  0  0  0
  8  9  1  0  0  0
  9 10  2  0  0  0
 10 38  1  0  0  0
 38 39  1  0  0  0
 39 40  1  0  0  0
 40 41  1  0  0  0
 41 42  1  0  0  0
 42 43  1  0  0  0
 43 44  1  0  0  0
 44 45  1  0  0  0
 45 46  1  0  0  0
  6 11  1  0  0  0
 11 12  1  0  0  0
 12 13  1  0  0  0
 13 14  1  0  0  0
 14 15  1  0  0  0
 15 18  1  0  0  0
 18 19  1  0  0  0
 19 20  1  0  0  0
 20 21  1  0  0  0
 21 22  1  0  0  0
 22 23  1  0  0  0
 23 24  1  0  0  0
 15 16  1  0  0  0
 16 17  1  0  0  0
 10  1  1  0  0  0
 46 42  1  0  0  0
 17 11  1  0  0  0
  8  3  1  0  0  0
 24 19  1  0  0  0
 34 29  1  0  0  0
 27 28  1  0  0  0
M  END
> <minimizedAffinity>
-5.90988

> <CNNscore>
0.1100238189

> <CNNaffinity>
5.8775072098

> <CNN_VS>
0.6466658115

> <CNNaffinity_variance>
1.0030529499

$$$$
[H]c1c(OC([H])([H])C([H])([H])C([H])([H])N2C([H])([H])C([H])([H])C([H])([H])C2([H])[H])c(OC([H])([H])[H])c([H])c2c(N([H])C3([H])C([H])([H])C([H])([H])N(C([H])(C([H])([H])[H])C([H])([H])[H])C([H])([H])C3([H])[H])nc(N3C([H])([H])C([H])([H])N(C([H])([H])C4([H])C([H])([H])C([H])([H])C([H])([H])C([H])([H])C4([H])[H])C([H])([H])C([H])([H])C3([H])[H])nc12


 46 51  0  0  0  0  0  0  0  0999 V2000
   36.0938  -21.8049   37.6899 C   0  0  0  0  0  0  0  0  0  0  0  0
   37.1478  -20.9547   37.4116 C   0  0  0  0  0  0  0  0  0  0  0  0
   36.9356  -19.6120   37.1918 C   0  0  0  0  0  0  0  0  0  0  0  0
   37.9469  -18.7277   36.9123 C   0  0  0  0  0  0  0  0  0  0  0  0
   37.6106  -17.4512   36.7186 N   0  0  0  0  0  0  0  0  0  0  0  0
   36.3446  -16.9835   36.7811 C   0  0  0  0  0  0  0  0  0  0  0  0
   35.3769  -17.8737   37.0567 N   0  0  0  0  0  0  0  0  0  0  0  0
   35.6030  -19.1872   37.2702 C   0  0  0  0  0  0  0  0  0  0  0  0
   34.5564  -20.0454   37.5491 C   0  0  0  0  0  0  0  0  0  0  0  0
   34.7724  -21.3848   37.7679 C   0  0  0  0  0  0  0  0  0  0  0  0
   36.0559  -15.5954   36.5565 N   0  0  0  0  0  0  0  0  0  0  0  0
   36.9888  -14.7345   37.2182 C   0  0  0  0  0  0  0  0  0  0  0  0
   36.8290  -13.2908   37.0415 C   0  0  0  0  0  0  0  0  0  0  0  0
   35.4415  -12.7818   36.7183 C   0  0  0  0  0  0  0  0  0  0  0  0
   34.3989  -13.5029   37.3124 N   0  0  0  0  0  0  0  0  0  0  0  0
   33.8959  -14.6170   36.5501 C   0  0  0  0  0  0  0  0  0  0  0  0
   34.9084  -15.3319   35.7291 C   0  0  0  0  0  0  0  0  0  0  0  0
   33.4910  -12.9267   38.1860 C   0  0  0  0  0  0  0  0  0  0  0  0
   32.6382  -11.8280   37.6406 C   0  0  0  0  0  0  0  0  0  0  0  0
   33.0163  -10.4432   37.9924 C   0  0  0  0  0  0  0  0  0  0  0  0
   32.1103   -9.4896   37.1622 C   0  0  0  0  0  0  0  0  0  0  0  0
   30.7038   -9.6653   37.6603 C   0  0  0  0  0  0  0  0  0  0  0  0
   30.3073  -11.1176   37.3646 C   0  0  0  0  0  0  0  0  0  0  0  0
   31.1866  -12.0568   38.1218 C   0  0  0  0  0  0  0  0  0  0  0  0
   37.0675  -23.9372   36.9652 C   0  0  0  0  0  0  0  0  0  0  0  0
   36.3491  -23.1534   37.9064 O   0  0  0  0  0  0  0  0  0  0  0  0
   39.2835  -19.1314   36.8296 N   0  0  0  0  0  0  0  0  0  0  0  0
   40.0123  -18.5786   37.3562 H   0  0  0  0  0  0  0  0  0  0  0  0
   39.8014  -20.2520   36.0829 C   0  0  0  0  0  0  0  0  0  0  0  0
   41.2824  -20.4133   36.1611 C   0  0  0  0  0  0  0  0  0  0  0  0
   41.6765  -21.7174   35.4869 C   0  0  0  0  0  0  0  0  0  0  0  0
   40.5072  -22.3369   34.9356 N   0  0  0  0  0  0  0  0  0  0  0  0
   39.7573  -21.5260   34.0264 C   0  0  0  0  0  0  0  0  0  0  0  0
   39.4126  -20.1510   34.6295 C   0  0  0  0  0  0  0  0  0  0  0  0
   40.7911  -23.5861   34.2839 C   0  0  0  0  0  0  0  0  0  0  0  0
   39.5550  -24.3527   33.9073 C   0  0  0  0  0  0  0  0  0  0  0  0
   41.6217  -23.3152   33.0448 C   0  0  0  0  0  0  0  0  0  0  0  0
   33.7829  -22.3129   38.0531 O   0  0  0  0  0  0  0  0  0  0  0  0
   32.6814  -22.4394   37.1816 C   0  0  0  0  0  0  0  0  0  0  0  0
   33.0679  -21.8639   35.8204 C   0  0  0  0  0  0  0  0  0  0  0  0
   31.8312  -21.3649   35.1370 C   0  0  0  0  0  0  0  0  0  0  0  0
   32.1855  -20.4316   34.1110 N   0  0  0  0  0  0  0  0  0  0  0  0
   31.5996  -19.1347   34.3308 C   0  0  0  0  0  0  0  0  0  0  0  0
   32.7128  -18.2582   34.8169 C   0  0  0  0  0  0  0  0  0  0  0  0
   33.9000  -18.8165   34.0276 C   0  0  0  0  0  0  0  0  0  0  0  0
   33.6092  -20.3102   34.0149 C   0  0  0  0  0  0  0  0  0  0  0  0
 25 26  1  0  0  0
 26  1  1  0  0  0
  1  2  2  0  0  0
  2  3  1  0  0  0
  3  4  2  0  0  0
  4 27  1  0  0  0
 27 29  1  0  0  0
 29 30  1  0  0  0
 30 31  1  0  0  0
 31 32  1  0  0  0
 32 33  1  0  0  0
 33 34  1  0  0  0
 32 35  1  0  0  0
 35 36  1  0  0  0
 35 37  1  0  0  0
  4  5  1  0  0  0
  5  6  2  0  0  0
  6  7  1  0  0  0
  7  8  2  0  0  0
  8  9  1  0  0  0
  9 10  2  0  0  0
 10 38  1  0  0  0
 38 39  1  0  0  0
 39 40  1  0  0  0
 40 41  1  0  0  0
 41 42  1  0  0  0
 42 43  1  0  0  0
 43 44  1  0  0  0
 44 45  1  0  0  0
 45 46  1  0  0  0
  6 11  1  0  0  0
 11 12  1  0  0  0
 12 13  1  0  0  0
 13 14  1  0  0  0
 14 15  1  0  0  0
 15 18  1  0  0  0
 18 19  1  0  0  0
 19 20  1  0  0  0
 20 21  1  0  0  0
 21 22  1  0  0  0
 22 23  1  0  0  0
 23 24  1  0  0  0
 15 16  1  0  0  0
 16 17  1  0  0  0
 10  1  1  0  0  0
 46 42  1  0  0  0
 17 11  1  0  0  0
  8  3  1  0  0  0
 24 19  1  0  0  0
 34 29  1  0  0  0
 27 28  1  0  0  0
M  END
> <minimizedAffinity>
-7.38048

> <CNNscore>
0.1086979657

> <CNNaffinity>
6.7851066589

> <CNN_VS>
0.7375273108

> <CNNaffinity_variance>
0.7395437956

$$$$
[H]c1c(OC([H])([H])C([H])([H])C([H])([H])N2C([H])([H])C([H])([H])C([H])([H])C2([H])[H])c(OC([H])([H])[H])c([H])c2c(N([H])C3([H])C([H])([H])C([H])([H])N(C([H])(C([H])([H])[H])C([H])([H])[H])C([H])([H])C3([H])[H])nc(N3C([H])([H])C([H])([H])N(C([H])([H])C4([H])C([H])([H])C([H])([H])C([H])([H])C([H])([H])C4([H])[H])C([H])([H])C([H])([H])C3([H])[H])nc12


 46 51  0  0  0  0  0  0  0  0999 V2000
   35.7702  -22.0861   37.4802 C   0  0  0  0  0  0  0  0  0  0  0  0
   36.7682  -21.3433   36.8772 C   0  0  0  0  0  0  0  0  0  0  0  0
   36.6712  -19.9730   36.7812 C   0  0  0  0  0  0  0  0  0  0  0  0
   37.6335  -19.1915   36.1930 C   0  0  0  0  0  0  0  0  0  0  0  0
   37.4213  -17.8747   36.1626 N   0  0  0  0  0  0  0  0  0  0  0  0
   36.3248  -17.2721   36.6725 C   0  0  0  0  0  0  0  0  0  0  0  0
   35.4011  -18.0642   37.2419 N   0  0  0  0  0  0  0  0  0  0  0  0
   35.5125  -19.4066   37.3280 C   0  0  0  0  0  0  0  0  0  0  0  0
   34.5207  -20.1582   37.9287 C   0  0  0  0  0  0  0  0  0  0  0  0
   34.6212  -21.5255   38.0225 C   0  0  0  0  0  0  0  0  0  0  0  0
   36.1610  -15.8478   36.5998 N   0  0  0  0  0  0  0  0  0  0  0  0
   36.9902  -15.1588   37.5414 C   0  0  0  0  0  0  0  0  0  0  0  0
   36.9462  -13.6962   37.5474 C   0  0  0  0  0  0  0  0  0  0  0  0
   35.6790  -13.0393   37.0463 C   0  0  0  0  0  0  0  0  0  0  0  0
   34.5025  -13.7455   37.3243 N   0  0  0  0  0  0  0  0  0  0  0  0
   34.1004  -14.7062   36.3290 C   0  0  0  0  0  0  0  0  0  0  0  0
   35.2148  -15.3869   35.6184 C   0  0  0  0  0  0  0  0  0  0  0  0
   33.4726  -13.2171   38.0857 C   0  0  0  0  0  0  0  0  0  0  0  0
   32.8298  -11.9698   37.5731 C   0  0  0  0  0  0  0  0  0  0  0  0
   33.3567  -10.6839   38.0765 C   0  0  0  0  0  0  0  0  0  0  0  0
   32.6682   -9.5502   37.2641 C   0  0  0  0  0  0  0  0  0  0  0  0
   31.2108   -9.5624   37.6289 C   0  0  0  0  0  0  0  0  0  0  0  0
   30.6514  -10.9166   37.1738 C   0  0  0  0  0  0  0  0  0  0  0  0
   31.3224  -12.0266   37.9129 C   0  0  0  0  0  0  0  0  0  0  0  0
   36.7670  -24.1824   36.6853 C   0  0  0  0  0  0  0  0  0  0  0  0
   35.9053  -23.4668   37.5579 O   0  0  0  0  0  0  0  0  0  0  0  0
   38.7973  -19.7372   35.6413 N   0  0  0  0  0  0  0  0  0  0  0  0
   38.7157  -20.6043   35.0450 H   0  0  0  0  0  0  0  0  0  0  0  0
   40.1419  -19.2383   35.7974 C   0  0  0  0  0  0  0  0  0  0  0  0
   41.1289  -19.8159   34.8394 C   0  0  0  0  0  0  0  0  0  0  0  0
   42.4532  -19.0849   34.9893 C   0  0  0  0  0  0  0  0  0  0  0  0
   42.3458  -18.1240   36.0477 N   0  0  0  0  0  0  0  0  0  0  0  0
   41.9350  -18.6516   37.3123 C   0  0  0  0  0  0  0  0  0  0  0  0
   40.6433  -19.4833   37.1983 C   0  0  0  0  0  0  0  0  0  0  0  0
   43.5580  -17.3791   36.2513 C   0  0  0  0  0  0  0  0  0  0  0  0
   44.7936  -18.2327   36.2031 C   0  0  0  0  0  0  0  0  0  0  0  0
   43.6475  -16.2909   35.1995 C   0  0  0  0  0  0  0  0  0  0  0  0
   33.6754  -22.3534   38.6074 O   0  0  0  0  0  0  0  0  0  0  0  0
   32.3261  -22.2510   38.2099 C   0  0  0  0  0  0  0  0  0  0  0  0
   32.2746  -22.1169   36.6891 C   0  0  0  0  0  0  0  0  0  0  0  0
   31.1856  -21.1542   36.3247 C   0  0  0  0  0  0  0  0  0  0  0  0
   31.4439  -20.5942   35.0329 N   0  0  0  0  0  0  0  0  0  0  0  0
   31.2738  -19.1644   35.0170 C   0  0  0  0  0  0  0  0  0  0  0  0
   32.6555  -18.5867   34.9911 C   0  0  0  0  0  0  0  0  0  0  0  0
   33.3972  -19.6221   34.1414 C   0  0  0  0  0  0  0  0  0  0  0  0
   32.7662  -20.9298   34.5973 C   0  0  0  0  0  0  0  0  0  0  0  0
 25 26  1  0  0  0
 26  1  1  0  0  0
  1  2  2  0  0  0
  2  3  1  0  0  0
  3  4  2  0  0  0
  4 27  1  0  0  0
 27 29  1  0  0  0
 29 30  1  0  0  0
 30 31  1  0  0  0
 31 32  1  0  0  0
 32 33  1  0  0  0
 33 34  1  0  0  0
 32 35  1  0  0  0
 35 36  1  0  0  0
 35 37  1  0  0  0
  4  5  1  0  0  0
  5  6  2  0  0  0
  6  7  1  0  0  0
  7  8  2  0  0  0
  8  9  1  0  0  0
  9 10  2  0  0  0
 10 38  1  0  0  0
 38 39  1  0  0  0
 39 40  1  0  0  0
 40 41  1  0  0  0
 41 42  1  0  0  0
 42 43  1  0  0  0
 43 44  1  0  0  0
 44 45  1  0  0  0
 45 46  1  0  0  0
  6 11  1  0  0  0
 11 12  1  0  0  0
 12 13  1  0  0  0
 13 14  1  0  0  0
 14 15  1  0  0  0
 15 18  1  0  0  0
 18 19  1  0  0  0
 19 20  1  0  0  0
 20 21  1  0  0  0
 21 22  1  0  0  0
 22 23  1  0  0  0
 23 24  1  0  0  0
 15 16  1  0  0  0
 16 17  1  0  0  0
 10  1  1  0  0  0
 46 42  1  0  0  0
 17 11  1  0  0  0
  8  3  1  0  0  0
 24 19  1  0  0  0
 34 29  1  0  0  0
 27 28  1  0  0  0
M  END
> <minimizedAffinity>
-8.05509

> <CNNscore>
0.0819685534

> <CNNaffinity>
6.9154763222

> <CNN_VS>
0.5668516159

> <CNNaffinity_variance>
0.6931537986

$$$$
