[H]c1nc(N([H])c2c([H])c([H])c3nc([H])n([C@]([H])(c4c([H])c([H])c([H])c([H])c4[H])C([H])([H])[H])c3c2[H])c(Cl)c([H])c1[H]


 26 29  0  0  0  0  0  0  0  0999 V2000
   32.3593  -19.7490   34.8109 N   0  0  0  0  0  0  0  0  0  0  0  0
   32.5367  -20.5514   33.7498 C   0  0  0  0  0  0  0  0  0  0  0  0
   33.7509  -20.3535   33.2111 N   0  0  0  0  0  0  0  0  0  0  0  0
   34.3836  -19.4061   33.9281 C   0  0  0  0  0  0  0  0  0  0  0  0
   35.6134  -18.7975   33.8654 C   0  0  0  0  0  0  0  0  0  0  0  0
   35.9201  -17.8247   34.8202 C   0  0  0  0  0  0  0  0  0  0  0  0
   35.0807  -17.4287   35.8206 C   0  0  0  0  0  0  0  0  0  0  0  0
   33.8302  -18.0747   35.8531 C   0  0  0  0  0  0  0  0  0  0  0  0
   33.5126  -19.0298   34.9272 C   0  0  0  0  0  0  0  0  0  0  0  0
   30.0909  -18.9100   34.9420 C   0  0  0  0  0  0  0  0  0  0  0  0
   31.2280  -19.6279   35.6740 C   0  0  0  0  0  0  0  0  0  0  0  0
   30.7052  -20.9198   36.1495 C   0  0  0  0  0  0  0  0  0  0  0  0
   31.3860  -21.7725   36.9877 C   0  0  0  0  0  0  0  0  0  0  0  0
   30.8572  -22.9753   37.4083 C   0  0  0  0  0  0  0  0  0  0  0  0
   29.6053  -23.3367   36.9756 C   0  0  0  0  0  0  0  0  0  0  0  0
   28.8980  -22.4946   36.1298 C   0  0  0  0  0  0  0  0  0  0  0  0
   29.4485  -21.2939   35.7215 C   0  0  0  0  0  0  0  0  0  0  0  0
   35.3366  -16.4338   36.7981 N   0  0  0  0  0  0  0  0  0  0  0  0
   35.9180  -16.7168   37.6571 H   0  0  0  0  0  0  0  0  0  0  0  0
   34.9026  -15.1113   36.7440 C   0  0  0  0  0  0  0  0  0  0  0  0
   33.7080  -14.6570   36.3793 N   0  0  0  0  0  0  0  0  0  0  0  0
   33.3207  -13.3847   36.3554 C   0  0  0  0  0  0  0  0  0  0  0  0
   34.2022  -12.3725   36.7375 C   0  0  0  0  0  0  0  0  0  0  0  0
   35.4685  -12.7809   37.1302 C   0  0  0  0  0  0  0  0  0  0  0  0
   35.8132  -14.1132   37.1347 C   0  0  0  0  0  0  0  0  0  0  0  0
   37.4460  -14.5049   37.6523 Cl  0  0  0  0  0  0  0  0  0  0  0  0
 10 11  1  0  0  0
 11 12  1  0  0  0
 12 13  2  0  0  0
 13 14  1  0  0  0
 14 15  2  0  0  0
 15 16  1  0  0  0
 16 17  2  0  0  0
 11  1  1  0  0  0
  1  2  1  0  0  0
  2  3  2  0  0  0
  3  4  1  0  0  0
  4  5  2  0  0  0
  5  6  1  0  0  0
  6  7  2  0  0  0
  7 18  1  0  0  0
 18 20  1  0  0  0
 20 21  2  0  0  0
 21 22  1  0  0  0
 22 23  2  0  0  0
 23 24  1  0  0  0
 24 25  2  0  0  0
 25 26  1  0  0  0
  7  8  1  0  0  0
  8  9  2  0  0  0
 17 12  1  0  0  0
  9  1  1  0  0  0
  9  4  1  0  0  0
 25 20  1  0  0  0
 18 19  1  0  0  0
M  END
> <minimizedAffinity>
-6.94859

> <CNNscore>
0.8107281923

> <CNNaffinity>
5.8694057465

> <CNN_VS>
4.7584929466

> <CNNaffinity_variance>
0.3115189672

$$$$
[H]c1nc(N([H])c2c([H])c([H])c3nc([H])n([C@]([H])(c4c([H])c([H])c([H])c([H])c4[H])C([H])([H])[H])c3c2[H])c(Cl)c([H])c1[H]


 26 29  0  0  0  0  0  0  0  0999 V2000
   39.0341  -20.4848   36.8003 N   0  0  0  0  0  0  0  0  0  0  0  0
   38.6170  -21.5685   37.4731 C   0  0  0  0  0  0  0  0  0  0  0  0
   37.4174  -21.3395   38.0318 N   0  0  0  0  0  0  0  0  0  0  0  0
   37.0379  -20.0856   37.7225 C   0  0  0  0  0  0  0  0  0  0  0  0
   35.9418  -19.3049   37.9975 C   0  0  0  0  0  0  0  0  0  0  0  0
   35.9073  -18.0068   37.4820 C   0  0  0  0  0  0  0  0  0  0  0  0
   36.8915  -17.4498   36.7183 C   0  0  0  0  0  0  0  0  0  0  0  0
   37.9983  -18.2798   36.4572 C   0  0  0  0  0  0  0  0  0  0  0  0
   38.0494  -19.5534   36.9529 C   0  0  0  0  0  0  0  0  0  0  0  0
   39.9315  -19.5776   34.7415 C   0  0  0  0  0  0  0  0  0  0  0  0
   40.2408  -20.2876   36.0622 C   0  0  0  0  0  0  0  0  0  0  0  0
   41.2460  -19.4820   36.7757 C   0  0  0  0  0  0  0  0  0  0  0  0
   41.6847  -19.7408   38.0538 C   0  0  0  0  0  0  0  0  0  0  0  0
   42.6294  -18.9580   38.6847 C   0  0  0  0  0  0  0  0  0  0  0  0
   43.1524  -17.8801   38.0140 C   0  0  0  0  0  0  0  0  0  0  0  0
   42.7268  -17.5976   36.7242 C   0  0  0  0  0  0  0  0  0  0  0  0
   41.7788  -18.3964   36.1122 C   0  0  0  0  0  0  0  0  0  0  0  0
   36.9130  -16.1336   36.1908 N   0  0  0  0  0  0  0  0  0  0  0  0
   37.7753  -15.8393   35.6201 H   0  0  0  0  0  0  0  0  0  0  0  0
   35.9082  -15.1810   36.3431 C   0  0  0  0  0  0  0  0  0  0  0  0
   34.6394  -15.2616   35.9555 N   0  0  0  0  0  0  0  0  0  0  0  0
   33.6995  -14.3372   36.1324 C   0  0  0  0  0  0  0  0  0  0  0  0
   34.0027  -13.1392   36.7807 C   0  0  0  0  0  0  0  0  0  0  0  0
   35.3132  -12.9918   37.2112 C   0  0  0  0  0  0  0  0  0  0  0  0
   36.2437  -13.9835   36.9999 C   0  0  0  0  0  0  0  0  0  0  0  0
   37.8702  -13.6795   37.5911 Cl  0  0  0  0  0  0  0  0  0  0  0  0
 10 11  1  0  0  0
 11 12  1  0  0  0
 12 13  2  0  0  0
 13 14  1  0  0  0
 14 15  2  0  0  0
 15 16  1  0  0  0
 16 17  2  0  0  0
 11  1  1  0  0  0
  1  2  1  0  0  0
  2  3  2  0  0  0
  3  4  1  0  0  0
  4  5  2  0  0  0
  5  6  1  0  0  0
  6  7  2  0  0  0
  7 18  1  0  0  0
 18 20  1  0  0  0
 20 21  2  0  0  0
 21 22  1  0  0  0
 22 23  2  0  0  0
 23 24  1  0  0  0
 24 25  2  0  0  0
 25 26  1  0  0  0
  7  8  1  0  0  0
  8  9  2  0  0  0
 17 12  1  0  0  0
  9  1  1  0  0  0
  9  4  1  0  0  0
 25 20  1  0  0  0
 18 19  1  0  0  0
M  END
> <minimizedAffinity>
-7.17572

> <CNNscore>
0.5790362358

> <CNNaffinity>
5.5128393173

> <CNN_VS>
3.1921336651

> <CNNaffinity_variance>
0.5080931783

$$$$
[H]c1nc(N([H])c2c([H])c([H])c3nc([H])n([C@]([H])(c4c([H])c([H])c([H])c([H])c4[H])C([H])([H])[H])c3c2[H])c(Cl)c([H])c1[H]


 26 29  0  0  0  0  0  0  0  0999 V2000
   34.8567  -13.7498   37.2371 N   0  0  0  0  0  0  0  0  0  0  0  0
   36.0418  -13.6408   37.8575 C   0  0  0  0  0  0  0  0  0  0  0  0
   36.7528  -14.7706   37.7104 N   0  0  0  0  0  0  0  0  0  0  0  0
   36.0252  -15.6376   36.9818 C   0  0  0  0  0  0  0  0  0  0  0  0
   36.2141  -16.9164   36.5172 C   0  0  0  0  0  0  0  0  0  0  0  0
   35.1933  -17.5059   35.7672 C   0  0  0  0  0  0  0  0  0  0  0  0
   34.0097  -16.9009   35.4588 C   0  0  0  0  0  0  0  0  0  0  0  0
   33.8524  -15.5915   35.9517 C   0  0  0  0  0  0  0  0  0  0  0  0
   34.8410  -14.9979   36.6871 C   0  0  0  0  0  0  0  0  0  0  0  0
   33.0514  -12.7099   38.4727 C   0  0  0  0  0  0  0  0  0  0  0  0
   33.7968  -12.7977   37.1382 C   0  0  0  0  0  0  0  0  0  0  0  0
   34.2508  -11.4403   36.7921 C   0  0  0  0  0  0  0  0  0  0  0  0
   35.2797  -11.1635   35.9216 C   0  0  0  0  0  0  0  0  0  0  0  0
   35.6726   -9.8744   35.6262 C   0  0  0  0  0  0  0  0  0  0  0  0
   35.0135   -8.8275   36.2220 C   0  0  0  0  0  0  0  0  0  0  0  0
   33.9725   -9.0799   37.1036 C   0  0  0  0  0  0  0  0  0  0  0  0
   33.5965  -10.3803   37.3843 C   0  0  0  0  0  0  0  0  0  0  0  0
   32.9370  -17.4631   34.7212 N   0  0  0  0  0  0  0  0  0  0  0  0
   32.5238  -16.8789   33.9187 H   0  0  0  0  0  0  0  0  0  0  0  0
   32.3679  -18.7152   34.9414 C   0  0  0  0  0  0  0  0  0  0  0  0
   31.2543  -19.0015   35.6081 N   0  0  0  0  0  0  0  0  0  0  0  0
   30.7288  -20.2106   35.7853 C   0  0  0  0  0  0  0  0  0  0  0  0
   31.3537  -21.3362   35.2467 C   0  0  0  0  0  0  0  0  0  0  0  0
   32.5234  -21.1054   34.5376 C   0  0  0  0  0  0  0  0  0  0  0  0
   33.0203  -19.8309   34.3868 C   0  0  0  0  0  0  0  0  0  0  0  0
   34.5089  -19.6671   33.4678 Cl  0  0  0  0  0  0  0  0  0  0  0  0
 10 11  1  0  0  0
 11 12  1  0  0  0
 12 13  2  0  0  0
 13 14  1  0  0  0
 14 15  2  0  0  0
 15 16  1  0  0  0
 16 17  2  0  0  0
 11  1  1  0  0  0
  1  2  1  0  0  0
  2  3  2  0  0  0
  3  4  1  0  0  0
  4  5  2  0  0  0
  5  6  1  0  0  0
  6  7  2  0  0  0
  7 18  1  0  0  0
 18 20  1  0  0  0
 20 21  2  0  0  0
 21 22  1  0  0  0
 22 23  2  0  0  0
 23 24  1  0  0  0
 24 25  2  0  0  0
 25 26  1  0  0  0
  7  8  1  0  0  0
  8  9  2  0  0  0
 17 12  1  0  0  0
  9  1  1  0  0  0
  9  4  1  0  0  0
 25 20  1  0  0  0
 18 19  1  0  0  0
M  END
> <minimizedAffinity>
-8.14779

> <CNNscore>
0.5188208818

> <CNNaffinity>
5.9908204079

> <CNN_VS>
3.1081626415

> <CNNaffinity_variance>
0.3264585733

$$$$
[H]c1nc(N([H])c2c([H])c([H])c3nc([H])n([C@]([H])(c4c([H])c([H])c([H])c([H])c4[H])C([H])([H])[H])c3c2[H])c(Cl)c([H])c1[H]


 26 29  0  0  0  0  0  0  0  0999 V2000
   33.0515  -20.5898   36.3084 N   0  0  0  0  0  0  0  0  0  0  0  0
   33.2246  -21.6106   37.1623 C   0  0  0  0  0  0  0  0  0  0  0  0
   34.2540  -21.3610   37.9879 N   0  0  0  0  0  0  0  0  0  0  0  0
   34.7675  -20.1571   37.6733 C   0  0  0  0  0  0  0  0  0  0  0  0
   35.7988  -19.3846   38.1493 C   0  0  0  0  0  0  0  0  0  0  0  0
   36.0335  -18.1476   37.5437 C   0  0  0  0  0  0  0  0  0  0  0  0
   35.3082  -17.6438   36.5034 C   0  0  0  0  0  0  0  0  0  0  0  0
   34.2599  -18.4632   36.0432 C   0  0  0  0  0  0  0  0  0  0  0  0
   34.0148  -19.6769   36.6239 C   0  0  0  0  0  0  0  0  0  0  0  0
   32.7088  -20.7946   33.9194 C   0  0  0  0  0  0  0  0  0  0  0  0
   32.0839  -20.4337   35.2697 C   0  0  0  0  0  0  0  0  0  0  0  0
   30.8870  -21.2735   35.4447 C   0  0  0  0  0  0  0  0  0  0  0  0
   30.8305  -22.6166   35.1517 C   0  0  0  0  0  0  0  0  0  0  0  0
   29.6860  -23.3658   35.3310 C   0  0  0  0  0  0  0  0  0  0  0  0
   28.5605  -22.7500   35.8201 C   0  0  0  0  0  0  0  0  0  0  0  0
   28.5912  -21.3966   36.1234 C   0  0  0  0  0  0  0  0  0  0  0  0
   29.7499  -20.6662   35.9353 C   0  0  0  0  0  0  0  0  0  0  0  0
   35.5196  -16.4070   35.8426 N   0  0  0  0  0  0  0  0  0  0  0  0
   36.1793  -16.4019   34.9936 H   0  0  0  0  0  0  0  0  0  0  0  0
   34.9426  -15.1890   36.1943 C   0  0  0  0  0  0  0  0  0  0  0  0
   33.7471  -14.7210   35.8502 N   0  0  0  0  0  0  0  0  0  0  0  0
   33.2188  -13.5571   36.2188 C   0  0  0  0  0  0  0  0  0  0  0  0
   33.9325  -12.6905   37.0477 C   0  0  0  0  0  0  0  0  0  0  0  0
   35.1905  -13.1207   37.4435 C   0  0  0  0  0  0  0  0  0  0  0  0
   35.6857  -14.3364   37.0301 C   0  0  0  0  0  0  0  0  0  0  0  0
   37.2910  -14.7698   37.5981 Cl  0  0  0  0  0  0  0  0  0  0  0  0
 10 11  1  0  0  0
 11 12  1  0  0  0
 12 13  2  0  0  0
 13 14  1  0  0  0
 14 15  2  0  0  0
 15 16  1  0  0  0
 16 17  2  0  0  0
 11  1  1  0  0  0
  1  2  1  0  0  0
  2  3  2  0  0  0
  3  4  1  0  0  0
  4  5  2  0  0  0
  5  6  1  0  0  0
  6  7  2  0  0  0
  7 18  1  0  0  0
 18 20  1  0  0  0
 20 21  2  0  0  0
 21 22  1  0  0  0
 22 23  2  0  0  0
 23 24  1  0  0  0
 24 25  2  0  0  0
 25 26  1  0  0  0
  7  8  1  0  0  0
  8  9  2  0  0  0
 17 12  1  0  0  0
  9  1  1  0  0  0
  9  4  1  0  0  0
 25 20  1  0  0  0
 18 19  1  0  0  0
M  END
> <minimizedAffinity>
-7.27520

> <CNNscore>
0.5184124708

> <CNNaffinity>
5.3009614944

> <CNN_VS>
2.7480845451

> <CNNaffinity_variance>
0.4821188450

$$$$
[H]c1nc(N([H])c2c([H])c([H])c3nc([H])n([C@]([H])(c4c([H])c([H])c([H])c([H])c4[H])C([H])([H])[H])c3c2[H])c(Cl)c([H])c1[H]


 26 29  0  0  0  0  0  0  0  0999 V2000
   35.7489  -13.6895   37.3723 N   0  0  0  0  0  0  0  0  0  0  0  0
   36.8604  -13.7930   38.1173 C   0  0  0  0  0  0  0  0  0  0  0  0
   37.2561  -15.0742   38.1922 N   0  0  0  0  0  0  0  0  0  0  0  0
   36.3922  -15.8268   37.4858 C   0  0  0  0  0  0  0  0  0  0  0  0
   36.2753  -17.1654   37.2007 C   0  0  0  0  0  0  0  0  0  0  0  0
   35.2055  -17.5819   36.4045 C   0  0  0  0  0  0  0  0  0  0  0  0
   34.2572  -16.7502   35.8836 C   0  0  0  0  0  0  0  0  0  0  0  0
   34.4101  -15.3862   36.1968 C   0  0  0  0  0  0  0  0  0  0  0  0
   35.4513  -14.9598   36.9742 C   0  0  0  0  0  0  0  0  0  0  0  0
   34.9260  -12.3770   35.5103 C   0  0  0  0  0  0  0  0  0  0  0  0
   34.9930  -12.5264   37.0325 C   0  0  0  0  0  0  0  0  0  0  0  0
   33.6102  -12.5506   37.5384 C   0  0  0  0  0  0  0  0  0  0  0  0
   33.2495  -12.9832   38.7937 C   0  0  0  0  0  0  0  0  0  0  0  0
   31.9395  -12.9889   39.2264 C   0  0  0  0  0  0  0  0  0  0  0  0
   30.9578  -12.5469   38.3743 C   0  0  0  0  0  0  0  0  0  0  0  0
   31.2953  -12.1054   37.1031 C   0  0  0  0  0  0  0  0  0  0  0  0
   32.6152  -12.1089   36.6914 C   0  0  0  0  0  0  0  0  0  0  0  0
   33.1436  -17.1257   35.0899 N   0  0  0  0  0  0  0  0  0  0  0  0
   32.6995  -16.3714   34.4657 H   0  0  0  0  0  0  0  0  0  0  0  0
   32.5708  -18.3945   35.0424 C   0  0  0  0  0  0  0  0  0  0  0  0
   31.4227  -18.7940   35.5800 N   0  0  0  0  0  0  0  0  0  0  0  0
   30.8956  -20.0127   35.5008 C   0  0  0  0  0  0  0  0  0  0  0  0
   31.5573  -21.0223   34.8006 C   0  0  0  0  0  0  0  0  0  0  0  0
   32.7641  -20.6698   34.2144 C   0  0  0  0  0  0  0  0  0  0  0  0
   33.2608  -19.3915   34.3299 C   0  0  0  0  0  0  0  0  0  0  0  0
   34.7984  -19.0675   33.5437 Cl  0  0  0  0  0  0  0  0  0  0  0  0
 10 11  1  0  0  0
 11 12  1  0  0  0
 12 13  2  0  0  0
 13 14  1  0  0  0
 14 15  2  0  0  0
 15 16  1  0  0  0
 16 17  2  0  0  0
 11  1  1  0  0  0
  1  2  1  0  0  0
  2  3  2  0  0  0
  3  4  1  0  0  0
  4  5  2  0  0  0
  5  6  1  0  0  0
  6  7  2  0  0  0
  7 18  1  0  0  0
 18 20  1  0  0  0
 20 21  2  0  0  0
 21 22  1  0  0  0
 22 23  2  0  0  0
 23 24  1  0  0  0
 24 25  2  0  0  0
 25 26  1  0  0  0
  7  8  1  0  0  0
  8  9  2  0  0  0
 17 12  1  0  0  0
  9  1  1  0  0  0
  9  4  1  0  0  0
 25 20  1  0  0  0
 18 19  1  0  0  0
M  END
> <minimizedAffinity>
-6.70312

> <CNNscore>
0.5153443217

> <CNNaffinity>
5.9714407921

> <CNN_VS>
3.0773479939

> <CNNaffinity_variance>
0.1702895761

$$$$
[H]c1nc(N([H])c2c([H])c([H])c3nc([H])n([C@]([H])(c4c([H])c([H])c([H])c([H])c4[H])C([H])([H])[H])c3c2[H])c(Cl)c([H])c1[H]


 26 29  0  0  0  0  0  0  0  0999 V2000
   34.0104  -20.8044   37.1355 N   0  0  0  0  0  0  0  0  0  0  0  0
   33.5560  -21.9641   36.6356 C   0  0  0  0  0  0  0  0  0  0  0  0
   32.9358  -21.7571   35.4625 N   0  0  0  0  0  0  0  0  0  0  0  0
   32.9821  -20.4408   35.1849 C   0  0  0  0  0  0  0  0  0  0  0  0
   32.5330  -19.6465   34.1581 C   0  0  0  0  0  0  0  0  0  0  0  0
   32.7804  -18.2732   34.2264 C   0  0  0  0  0  0  0  0  0  0  0  0
   33.4411  -17.6546   35.2478 C   0  0  0  0  0  0  0  0  0  0  0  0
   33.8865  -18.5005   36.2812 C   0  0  0  0  0  0  0  0  0  0  0  0
   33.6539  -19.8474   36.2313 C   0  0  0  0  0  0  0  0  0  0  0  0
   34.2310  -21.5150   39.4406 C   0  0  0  0  0  0  0  0  0  0  0  0
   34.7221  -20.5599   38.3493 C   0  0  0  0  0  0  0  0  0  0  0  0
   36.1790  -20.7357   38.2269 C   0  0  0  0  0  0  0  0  0  0  0  0
   37.0086  -19.8859   37.5321 C   0  0  0  0  0  0  0  0  0  0  0  0
   38.3702  -20.0896   37.4432 C   0  0  0  0  0  0  0  0  0  0  0  0
   38.9197  -21.1803   38.0705 C   0  0  0  0  0  0  0  0  0  0  0  0
   38.1049  -22.0526   38.7776 C   0  0  0  0  0  0  0  0  0  0  0  0
   36.7428  -21.8279   38.8528 C   0  0  0  0  0  0  0  0  0  0  0  0
   33.6980  -16.2656   35.3732 N   0  0  0  0  0  0  0  0  0  0  0  0
   33.0703  -15.5906   34.8198 H   0  0  0  0  0  0  0  0  0  0  0  0
   34.6956  -15.6917   36.1579 C   0  0  0  0  0  0  0  0  0  0  0  0
   35.8622  -16.2204   36.5130 N   0  0  0  0  0  0  0  0  0  0  0  0
   36.8018  -15.6361   37.2515 C   0  0  0  0  0  0  0  0  0  0  0  0
   36.6131  -14.3411   37.7360 C   0  0  0  0  0  0  0  0  0  0  0  0
   35.4131  -13.7316   37.4002 C   0  0  0  0  0  0  0  0  0  0  0  0
   34.4771  -14.3858   36.6321 C   0  0  0  0  0  0  0  0  0  0  0  0
   32.9970  -13.5093   36.2740 Cl  0  0  0  0  0  0  0  0  0  0  0  0
 10 11  1  0  0  0
 11 12  1  0  0  0
 12 13  2  0  0  0
 13 14  1  0  0  0
 14 15  2  0  0  0
 15 16  1  0  0  0
 16 17  2  0  0  0
 11  1  1  0  0  0
  1  2  1  0  0  0
  2  3  2  0  0  0
  3  4  1  0  0  0
  4  5  2  0  0  0
  5  6  1  0  0  0
  6  7  2  0  0  0
  7 18  1  0  0  0
 18 20  1  0  0  0
 20 21  2  0  0  0
 21 22  1  0  0  0
 22 23  2  0  0  0
 23 24  1  0  0  0
 24 25  2  0  0  0
 25 26  1  0  0  0
  7  8  1  0  0  0
  8  9  2  0  0  0
 17 12  1  0  0  0
  9  1  1  0  0  0
  9  4  1  0  0  0
 25 20  1  0  0  0
 18 19  1  0  0  0
M  END
> <minimizedAffinity>
-6.46781

> <CNNscore>
0.4497943223

> <CNNaffinity>
5.2140836716

> <CNN_VS>
2.3452651501

> <CNNaffinity_variance>
0.7151371837

$$$$
[H]c1nc(N([H])c2c([H])c([H])c3nc([H])n([C@]([H])(c4c([H])c([H])c([H])c([H])c4[H])C([H])([H])[H])c3c2[H])c(Cl)c([H])c1[H]


 26 29  0  0  0  0  0  0  0  0999 V2000
   39.1653  -19.9795   37.3767 N   0  0  0  0  0  0  0  0  0  0  0  0
   38.7713  -21.0947   38.0108 C   0  0  0  0  0  0  0  0  0  0  0  0
   37.4464  -21.0661   38.2286 N   0  0  0  0  0  0  0  0  0  0  0  0
   36.9596  -19.9142   37.7304 C   0  0  0  0  0  0  0  0  0  0  0  0
   35.7163  -19.3352   37.6547 C   0  0  0  0  0  0  0  0  0  0  0  0
   35.6042  -18.0852   37.0409 C   0  0  0  0  0  0  0  0  0  0  0  0
   36.6482  -17.3882   36.5056 C   0  0  0  0  0  0  0  0  0  0  0  0
   37.9061  -18.0131   36.6016 C   0  0  0  0  0  0  0  0  0  0  0  0
   38.0351  -19.2368   37.1985 C   0  0  0  0  0  0  0  0  0  0  0  0
   41.5257  -20.4085   37.7106 C   0  0  0  0  0  0  0  0  0  0  0  0
   40.4736  -19.5948   36.9523 C   0  0  0  0  0  0  0  0  0  0  0  0
   40.7108  -19.7927   35.5125 C   0  0  0  0  0  0  0  0  0  0  0  0
   40.9701  -18.7773   34.6209 C   0  0  0  0  0  0  0  0  0  0  0  0
   41.1863  -19.0087   33.2781 C   0  0  0  0  0  0  0  0  0  0  0  0
   41.1415  -20.2996   32.8122 C   0  0  0  0  0  0  0  0  0  0  0  0
   40.8820  -21.3414   33.6908 C   0  0  0  0  0  0  0  0  0  0  0  0
   40.6684  -21.0851   35.0325 C   0  0  0  0  0  0  0  0  0  0  0  0
   36.5895  -16.1107   35.8928 N   0  0  0  0  0  0  0  0  0  0  0  0
   37.3121  -15.8914   35.1275 H   0  0  0  0  0  0  0  0  0  0  0  0
   35.6707  -15.1076   36.1923 C   0  0  0  0  0  0  0  0  0  0  0  0
   34.3849  -15.0507   35.8603 N   0  0  0  0  0  0  0  0  0  0  0  0
   33.5295  -14.0830   36.1782 C   0  0  0  0  0  0  0  0  0  0  0  0
   33.9529  -12.9881   36.9327 C   0  0  0  0  0  0  0  0  0  0  0  0
   35.2873  -12.9865   37.3122 C   0  0  0  0  0  0  0  0  0  0  0  0
   36.1266  -14.0165   36.9536 C   0  0  0  0  0  0  0  0  0  0  0  0
   37.7946  -13.9007   37.4938 Cl  0  0  0  0  0  0  0  0  0  0  0  0
 10 11  1  0  0  0
 11 12  1  0  0  0
 12 13  2  0  0  0
 13 14  1  0  0  0
 14 15  2  0  0  0
 15 16  1  0  0  0
 16 17  2  0  0  0
 11  1  1  0  0  0
  1  2  1  0  0  0
  2  3  2  0  0  0
  3  4  1  0  0  0
  4  5  2  0  0  0
  5  6  1  0  0  0
  6  7  2  0  0  0
  7 18  1  0  0  0
 18 20  1  0  0  0
 20 21  2  0  0  0
 21 22  1  0  0  0
 22 23  2  0  0  0
 23 24  1  0  0  0
 24 25  2  0  0  0
 25 26  1  0  0  0
  7  8  1  0  0  0
  8  9  2  0  0  0
 17 12  1  0  0  0
  9  1  1  0  0  0
  9  4  1  0  0  0
 25 20  1  0  0  0
 18 19  1  0  0  0
M  END
> <minimizedAffinity>
-6.69350

> <CNNscore>
0.3951722085

> <CNNaffinity>
5.2949137688

> <CNN_VS>
2.0924026966

> <CNNaffinity_variance>
0.4244707227

$$$$
[H]c1nc(N([H])c2c([H])c([H])c3nc([H])n([C@]([H])(c4c([H])c([H])c([H])c([H])c4[H])C([H])([H])[H])c3c2[H])c(Cl)c([H])c1[H]


 26 29  0  0  0  0  0  0  0  0999 V2000
   36.7899  -18.4525   36.1543 N   0  0  0  0  0  0  0  0  0  0  0  0
   37.1843  -17.2887   36.6939 C   0  0  0  0  0  0  0  0  0  0  0  0
   36.2224  -16.3610   36.5604 N   0  0  0  0  0  0  0  0  0  0  0  0
   35.1779  -16.9219   35.9231 C   0  0  0  0  0  0  0  0  0  0  0  0
   33.9407  -16.4878   35.5135 C   0  0  0  0  0  0  0  0  0  0  0  0
   33.1037  -17.3952   34.8593 C   0  0  0  0  0  0  0  0  0  0  0  0
   33.4264  -18.6941   34.5929 C   0  0  0  0  0  0  0  0  0  0  0  0
   34.7015  -19.1027   35.0278 C   0  0  0  0  0  0  0  0  0  0  0  0
   35.5343  -18.2286   35.6703 C   0  0  0  0  0  0  0  0  0  0  0  0
   38.8254  -19.4926   35.3531 C   0  0  0  0  0  0  0  0  0  0  0  0
   37.4895  -19.6949   36.0732 C   0  0  0  0  0  0  0  0  0  0  0  0
   37.7782  -20.2984   37.3851 C   0  0  0  0  0  0  0  0  0  0  0  0
   36.8171  -20.7008   38.2837 C   0  0  0  0  0  0  0  0  0  0  0  0
   37.1334  -21.2620   39.5037 C   0  0  0  0  0  0  0  0  0  0  0  0
   38.4557  -21.4258   39.8353 C   0  0  0  0  0  0  0  0  0  0  0  0
   39.4440  -21.0281   38.9467 C   0  0  0  0  0  0  0  0  0  0  0  0
   39.1029  -20.4681   37.7296 C   0  0  0  0  0  0  0  0  0  0  0  0
   32.6225  -19.6456   33.9152 N   0  0  0  0  0  0  0  0  0  0  0  0
   32.4971  -19.5266   32.8540 H   0  0  0  0  0  0  0  0  0  0  0  0
   31.9786  -20.7315   34.5038 C   0  0  0  0  0  0  0  0  0  0  0  0
   32.4294  -21.9746   34.6387 N   0  0  0  0  0  0  0  0  0  0  0  0
   31.7931  -22.9861   35.2230 C   0  0  0  0  0  0  0  0  0  0  0  0
   30.5234  -22.7976   35.7706 C   0  0  0  0  0  0  0  0  0  0  0  0
   29.9947  -21.5196   35.6627 C   0  0  0  0  0  0  0  0  0  0  0  0
   30.7001  -20.5112   35.0467 C   0  0  0  0  0  0  0  0  0  0  0  0
   29.9245  -18.9363   34.9722 Cl  0  0  0  0  0  0  0  0  0  0  0  0
 10 11  1  0  0  0
 11 12  1  0  0  0
 12 13  2  0  0  0
 13 14  1  0  0  0
 14 15  2  0  0  0
 15 16  1  0  0  0
 16 17  2  0  0  0
 11  1  1  0  0  0
  1  2  1  0  0  0
  2  3  2  0  0  0
  3  4  1  0  0  0
  4  5  2  0  0  0
  5  6  1  0  0  0
  6  7  2  0  0  0
  7 18  1  0  0  0
 18 20  1  0  0  0
 20 21  2  0  0  0
 21 22  1  0  0  0
 22 23  2  0  0  0
 23 24  1  0  0  0
 24 25  2  0  0  0
 25 26  1  0  0  0
  7  8  1  0  0  0
  8  9  2  0  0  0
 17 12  1  0  0  0
  9  1  1  0  0  0
  9  4  1  0  0  0
 25 20  1  0  0  0
 18 19  1  0  0  0
M  END
> <minimizedAffinity>
-5.88498

> <CNNscore>
0.3669822812

> <CNNaffinity>
5.2836437225

> <CNN_VS>
1.9390035868

> <CNNaffinity_variance>
0.3348454535

$$$$
[H]c1nc(N([H])c2c([H])c([H])c3nc([H])n([C@]([H])(c4c([H])c([H])c([H])c([H])c4[H])C([H])([H])[H])c3c2[H])c(Cl)c([H])c1[H]


 26 29  0  0  0  0  0  0  0  0999 V2000
   39.5897  -20.5326   37.5112 N   0  0  0  0  0  0  0  0  0  0  0  0
   39.2912  -21.5612   38.3200 C   0  0  0  0  0  0  0  0  0  0  0  0
   37.9948  -21.5218   38.6683 N   0  0  0  0  0  0  0  0  0  0  0  0
   37.4300  -20.4509   38.0802 C   0  0  0  0  0  0  0  0  0  0  0  0
   36.1706  -19.9029   38.0603 C   0  0  0  0  0  0  0  0  0  0  0  0
   35.9642  -18.7447   37.3067 C   0  0  0  0  0  0  0  0  0  0  0  0
   36.9301  -18.1094   36.5816 C   0  0  0  0  0  0  0  0  0  0  0  0
   38.2073  -18.7001   36.6258 C   0  0  0  0  0  0  0  0  0  0  0  0
   38.4281  -19.8342   37.3576 C   0  0  0  0  0  0  0  0  0  0  0  0
   40.6660  -18.9460   36.0309 C   0  0  0  0  0  0  0  0  0  0  0  0
   40.8378  -20.1892   36.9079 C   0  0  0  0  0  0  0  0  0  0  0  0
   41.9064  -19.9036   37.8800 C   0  0  0  0  0  0  0  0  0  0  0  0
   41.7417  -19.1431   39.0147 C   0  0  0  0  0  0  0  0  0  0  0  0
   42.7724  -18.9005   39.8991 C   0  0  0  0  0  0  0  0  0  0  0  0
   44.0092  -19.4371   39.6391 C   0  0  0  0  0  0  0  0  0  0  0  0
   44.2015  -20.2076   38.5015 C   0  0  0  0  0  0  0  0  0  0  0  0
   43.1534  -20.4372   37.6296 C   0  0  0  0  0  0  0  0  0  0  0  0
   36.7762  -16.9232   35.8200 N   0  0  0  0  0  0  0  0  0  0  0  0
   37.0431  -16.9610   34.7792 H   0  0  0  0  0  0  0  0  0  0  0  0
   36.3030  -15.7046   36.3011 C   0  0  0  0  0  0  0  0  0  0  0  0
   36.9986  -14.7229   36.8661 N   0  0  0  0  0  0  0  0  0  0  0  0
   36.5160  -13.5619   37.3001 C   0  0  0  0  0  0  0  0  0  0  0  0
   35.1549  -13.2769   37.1838 C   0  0  0  0  0  0  0  0  0  0  0  0
   34.3716  -14.2626   36.6013 C   0  0  0  0  0  0  0  0  0  0  0  0
   34.9269  -15.4458   36.1704 C   0  0  0  0  0  0  0  0  0  0  0  0
   33.8320  -16.6158   35.4495 Cl  0  0  0  0  0  0  0  0  0  0  0  0
 10 11  1  0  0  0
 11 12  1  0  0  0
 12 13  2  0  0  0
 13 14  1  0  0  0
 14 15  2  0  0  0
 15 16  1  0  0  0
 16 17  2  0  0  0
 11  1  1  0  0  0
  1  2  1  0  0  0
  2  3  2  0  0  0
  3  4  1  0  0  0
  4  5  2  0  0  0
  5  6  1  0  0  0
  6  7  2  0  0  0
  7 18  1  0  0  0
 18 20  1  0  0  0
 20 21  2  0  0  0
 21 22  1  0  0  0
 22 23  2  0  0  0
 23 24  1  0  0  0
 24 25  2  0  0  0
 25 26  1  0  0  0
  7  8  1  0  0  0
  8  9  2  0  0  0
 17 12  1  0  0  0
  9  1  1  0  0  0
  9  4  1  0  0  0
 25 20  1  0  0  0
 18 19  1  0  0  0
M  END
> <minimizedAffinity>
-6.38007

> <CNNscore>
0.3320330083

> <CNNaffinity>
5.3080329895

> <CNN_VS>
1.7624421120

> <CNNaffinity_variance>
0.3617025018

$$$$
[H]c1c([H])c(C#N)c([H])c(N2C([H])([H])C([H])([H])N(c3c([H])c([H])c(C#N)c(N([H])C(=O)c4c([H])c([H])c5c(c4[H])c([H])c([H])n5C([H])([H])[H])c3[H])C([H])([H])C2([H])[H])c1[H]


 36 40  0  0  0  0  0  0  0  0999 V2000
   35.4111  -15.6791   36.4566 C   0  0  0  0  0  0  0  0  0  0  0  0
   34.6036  -16.7374   36.1250 C   0  0  0  0  0  0  0  0  0  0  0  0
   35.0127  -18.0631   36.3205 C   0  0  0  0  0  0  0  0  0  0  0  0
   36.2579  -18.2907   36.8592 C   0  0  0  0  0  0  0  0  0  0  0  0
   37.0992  -17.2553   37.2053 C   0  0  0  0  0  0  0  0  0  0  0  0
   36.6824  -15.9631   37.0072 C   0  0  0  0  0  0  0  0  0  0  0  0
   34.1427  -19.1358   35.9813 N   0  0  0  0  0  0  0  0  0  0  0  0
   33.0616  -18.9769   35.0123 C   0  0  0  0  0  0  0  0  0  0  0  0
   31.7873  -19.3113   35.8048 C   0  0  0  0  0  0  0  0  0  0  0  0
   31.8394  -20.6749   36.2570 N   0  0  0  0  0  0  0  0  0  0  0  0
   32.9602  -20.9465   37.1739 C   0  0  0  0  0  0  0  0  0  0  0  0
   34.2640  -20.4637   36.5434 C   0  0  0  0  0  0  0  0  0  0  0  0
   30.9337  -21.6838   35.8746 C   0  0  0  0  0  0  0  0  0  0  0  0
   29.6044  -21.6146   36.2558 C   0  0  0  0  0  0  0  0  0  0  0  0
   28.6726  -22.6006   35.9084 C   0  0  0  0  0  0  0  0  0  0  0  0
   29.1001  -23.6724   35.1622 C   0  0  0  0  0  0  0  0  0  0  0  0
   30.4165  -23.7710   34.7669 C   0  0  0  0  0  0  0  0  0  0  0  0
   31.3189  -22.7667   35.1327 C   0  0  0  0  0  0  0  0  0  0  0  0
   30.8096  -24.9087   33.9902 C   0  0  0  0  0  0  0  0  0  0  0  0
   31.1369  -25.8323   33.3701 N   0  0  0  0  0  0  0  0  0  0  0  0
   34.6384  -13.4661   37.3163 C   0  0  0  0  0  0  0  0  0  0  0  0
   34.4251  -13.8149   38.4903 O   0  0  0  0  0  0  0  0  0  0  0  0
   35.1096  -14.3143   36.3070 N   0  0  0  0  0  0  0  0  0  0  0  0
   35.2511  -13.8650   35.3367 H   0  0  0  0  0  0  0  0  0  0  0  0
   34.1009   -6.9471   35.6157 C   0  0  0  0  0  0  0  0  0  0  0  0
   33.4285   -8.0356   36.3372 N   0  0  0  0  0  0  0  0  0  0  0  0
   32.2509   -7.9694   36.9903 C   0  0  0  0  0  0  0  0  0  0  0  0
   31.9483   -9.1945   37.5424 C   0  0  0  0  0  0  0  0  0  0  0  0
   32.9812  -10.0571   37.2185 C   0  0  0  0  0  0  0  0  0  0  0  0
   33.2153  -11.4045   37.5014 C   0  0  0  0  0  0  0  0  0  0  0  0
   34.3484  -12.0319   37.0472 C   0  0  0  0  0  0  0  0  0  0  0  0
   35.2368  -11.2709   36.3037 C   0  0  0  0  0  0  0  0  0  0  0  0
   35.0064   -9.9438   36.0250 C   0  0  0  0  0  0  0  0  0  0  0  0
   33.8647   -9.3013   36.4792 C   0  0  0  0  0  0  0  0  0  0  0  0
   37.5768  -14.8890   37.3757 C   0  0  0  0  0  0  0  0  0  0  0  0
   38.2814  -14.0297   37.6866 N   0  0  0  0  0  0  0  0  0  0  0  0
 25 26  1  0  0  0
 26 27  1  0  0  0
 27 28  2  0  0  0
 28 29  1  0  0  0
 29 30  2  0  0  0
 30 31  1  0  0  0
 31 32  2  0  0  0
 32 33  1  0  0  0
 33 34  2  0  0  0
 31 21  1  0  0  0
 21 22  2  0  0  0
 21 23  1  0  0  0
 23  1  1  0  0  0
  1  2  2  0  0  0
  2  3  1  0  0  0
  3  4  2  0  0  0
  4  5  1  0  0  0
  5  6  2  0  0  0
  6 35  1  0  0  0
 35 36  3  0  0  0
  3  7  1  0  0  0
  7  8  1  0  0  0
  8  9  1  0  0  0
  9 10  1  0  0  0
 10 11  1  0  0  0
 11 12  1  0  0  0
 10 13  1  0  0  0
 13 14  2  0  0  0
 14 15  1  0  0  0
 15 16  2  0  0  0
 16 17  1  0  0  0
 17 18  2  0  0  0
 17 19  1  0  0  0
 19 20  3  0  0  0
 34 26  1  0  0  0
  6  1  1  0  0  0
 12  7  1  0  0  0
 18 13  1  0  0  0
 34 29  1  0  0  0
 23 24  1  0  0  0
M  END
> <minimizedAffinity>
-7.37436

> <CNNscore>
0.6422430277

> <CNNaffinity>
6.3027982712

> <CNN_VS>
4.0479283333

> <CNNaffinity_variance>
0.0639804751

$$$$
[H]c1c([H])c(C#N)c([H])c(N2C([H])([H])C([H])([H])N(c3c([H])c([H])c(C#N)c(N([H])C(=O)c4c([H])c([H])c5c(c4[H])c([H])c([H])n5C([H])([H])[H])c3[H])C([H])([H])C2([H])[H])c1[H]


 36 40  0  0  0  0  0  0  0  0999 V2000
   34.4137  -16.0009   35.9081 C   0  0  0  0  0  0  0  0  0  0  0  0
   33.8320  -17.2268   35.7060 C   0  0  0  0  0  0  0  0  0  0  0  0
   34.6004  -18.3759   35.4776 C   0  0  0  0  0  0  0  0  0  0  0  0
   35.9705  -18.2535   35.4588 C   0  0  0  0  0  0  0  0  0  0  0  0
   36.5934  -17.0402   35.6572 C   0  0  0  0  0  0  0  0  0  0  0  0
   35.8255  -15.9250   35.8797 C   0  0  0  0  0  0  0  0  0  0  0  0
   33.9643  -19.6340   35.2891 N   0  0  0  0  0  0  0  0  0  0  0  0
   33.3470  -20.0048   34.0185 C   0  0  0  0  0  0  0  0  0  0  0  0
   31.8738  -20.2658   34.3725 C   0  0  0  0  0  0  0  0  0  0  0  0
   31.7825  -21.3629   35.2970 N   0  0  0  0  0  0  0  0  0  0  0  0
   32.4601  -21.1070   36.5799 C   0  0  0  0  0  0  0  0  0  0  0  0
   33.8926  -20.6488   36.3182 C   0  0  0  0  0  0  0  0  0  0  0  0
   31.1289  -22.5829   35.0345 C   0  0  0  0  0  0  0  0  0  0  0  0
   31.6391  -23.4647   34.0968 C   0  0  0  0  0  0  0  0  0  0  0  0
   31.0160  -24.6821   33.7956 C   0  0  0  0  0  0  0  0  0  0  0  0
   29.8570  -25.0067   34.4586 C   0  0  0  0  0  0  0  0  0  0  0  0
   29.3232  -24.1509   35.3976 C   0  0  0  0  0  0  0  0  0  0  0  0
   29.9734  -22.9432   35.6721 C   0  0  0  0  0  0  0  0  0  0  0  0
   28.1132  -24.5375   36.0597 C   0  0  0  0  0  0  0  0  0  0  0  0
   27.1405  -24.8547   36.6056 N   0  0  0  0  0  0  0  0  0  0  0  0
   33.8301  -14.0250   37.3182 C   0  0  0  0  0  0  0  0  0  0  0  0
   34.5110  -14.3298   38.3125 O   0  0  0  0  0  0  0  0  0  0  0  0
   33.7487  -14.7855   36.1455 N   0  0  0  0  0  0  0  0  0  0  0  0
   33.1192  -14.3885   35.3647 H   0  0  0  0  0  0  0  0  0  0  0  0
   29.7327   -8.7403   38.2991 C   0  0  0  0  0  0  0  0  0  0  0  0
   31.0808   -9.1193   37.8559 N   0  0  0  0  0  0  0  0  0  0  0  0
   32.0597   -8.2915   37.4385 C   0  0  0  0  0  0  0  0  0  0  0  0
   33.1815   -9.0181   37.1053 C   0  0  0  0  0  0  0  0  0  0  0  0
   32.8866  -10.3525   37.3251 C   0  0  0  0  0  0  0  0  0  0  0  0
   33.6267  -11.5259   37.1655 C   0  0  0  0  0  0  0  0  0  0  0  0
   33.0797  -12.7487   37.4648 C   0  0  0  0  0  0  0  0  0  0  0  0
   31.7730  -12.7599   37.9270 C   0  0  0  0  0  0  0  0  0  0  0  0
   31.0438  -11.6043   38.0842 C   0  0  0  0  0  0  0  0  0  0  0  0
   31.5878  -10.3644   37.7848 C   0  0  0  0  0  0  0  0  0  0  0  0
   36.4947  -14.6605   36.0859 C   0  0  0  0  0  0  0  0  0  0  0  0
   37.0263  -13.6467   36.2319 N   0  0  0  0  0  0  0  0  0  0  0  0
 25 26  1  0  0  0
 26 27  1  0  0  0
 27 28  2  0  0  0
 28 29  1  0  0  0
 29 30  2  0  0  0
 30 31  1  0  0  0
 31 32  2  0  0  0
 32 33  1  0  0  0
 33 34  2  0  0  0
 31 21  1  0  0  0
 21 22  2  0  0  0
 21 23  1  0  0  0
 23  1  1  0  0  0
  1  2  2  0  0  0
  2  3  1  0  0  0
  3  4  2  0  0  0
  4  5  1  0  0  0
  5  6  2  0  0  0
  6 35  1  0  0  0
 35 36  3  0  0  0
  3  7  1  0  0  0
  7  8  1  0  0  0
  8  9  1  0  0  0
  9 10  1  0  0  0
 10 11  1  0  0  0
 11 12  1  0  0  0
 10 13  1  0  0  0
 13 14  2  0  0  0
 14 15  1  0  0  0
 15 16  2  0  0  0
 16 17  1  0  0  0
 17 18  2  0  0  0
 17 19  1  0  0  0
 19 20  3  0  0  0
 34 26  1  0  0  0
  6  1  1  0  0  0
 12  7  1  0  0  0
 18 13  1  0  0  0
 34 29  1  0  0  0
 23 24  1  0  0  0
M  END
> <minimizedAffinity>
-6.85806

> <CNNscore>
0.5803511143

> <CNNaffinity>
6.2909960747

> <CNN_VS>
3.6509866714

> <CNNaffinity_variance>
0.0053249160

$$$$
[H]c1c([H])c(C#N)c([H])c(N2C([H])([H])C([H])([H])N(c3c([H])c([H])c(C#N)c(N([H])C(=O)c4c([H])c([H])c5c(c4[H])c([H])c([H])n5C([H])([H])[H])c3[H])C([H])([H])C2([H])[H])c1[H]


 36 40  0  0  0  0  0  0  0  0999 V2000
   32.9584  -14.4182   37.3066 C   0  0  0  0  0  0  0  0  0  0  0  0
   33.8919  -15.4109   37.1484 C   0  0  0  0  0  0  0  0  0  0  0  0
   34.9722  -15.2699   36.2674 C   0  0  0  0  0  0  0  0  0  0  0  0
   35.0839  -14.1006   35.5513 C   0  0  0  0  0  0  0  0  0  0  0  0
   34.1672  -13.0796   35.6813 C   0  0  0  0  0  0  0  0  0  0  0  0
   33.1154  -13.2345   36.5488 C   0  0  0  0  0  0  0  0  0  0  0  0
   35.9311  -16.3127   36.1412 N   0  0  0  0  0  0  0  0  0  0  0  0
   37.1097  -16.1794   35.2890 C   0  0  0  0  0  0  0  0  0  0  0  0
   36.9780  -17.3271   34.2745 C   0  0  0  0  0  0  0  0  0  0  0  0
   37.0135  -18.5897   34.9609 N   0  0  0  0  0  0  0  0  0  0  0  0
   35.9036  -18.7715   35.9126 C   0  0  0  0  0  0  0  0  0  0  0  0
   35.8342  -17.5697   36.8514 C   0  0  0  0  0  0  0  0  0  0  0  0
   38.0018  -19.5767   34.7777 C   0  0  0  0  0  0  0  0  0  0  0  0
   38.0165  -20.3502   33.6294 C   0  0  0  0  0  0  0  0  0  0  0  0
   38.9725  -21.3501   33.4112 C   0  0  0  0  0  0  0  0  0  0  0  0
   39.9271  -21.5656   34.3758 C   0  0  0  0  0  0  0  0  0  0  0  0
   39.9400  -20.8129   35.5300 C   0  0  0  0  0  0  0  0  0  0  0  0
   38.9690  -19.8228   35.7134 C   0  0  0  0  0  0  0  0  0  0  0  0
   40.9570  -21.0783   36.5033 C   0  0  0  0  0  0  0  0  0  0  0  0
   41.7712  -21.2950   37.3001 N   0  0  0  0  0  0  0  0  0  0  0  0
   31.6043  -13.5774   39.2283 C   0  0  0  0  0  0  0  0  0  0  0  0
   32.3649  -12.6554   39.5701 O   0  0  0  0  0  0  0  0  0  0  0  0
   31.8389  -14.4467   38.1561 N   0  0  0  0  0  0  0  0  0  0  0  0
   31.0835  -15.1958   37.9780 H   0  0  0  0  0  0  0  0  0  0  0  0
   26.0346  -15.0030   42.7813 C   0  0  0  0  0  0  0  0  0  0  0  0
   26.9848  -13.9298   42.4607 N   0  0  0  0  0  0  0  0  0  0  0  0
   26.9598  -12.6615   42.9175 C   0  0  0  0  0  0  0  0  0  0  0  0
   28.0170  -11.9507   42.3936 C   0  0  0  0  0  0  0  0  0  0  0  0
   28.7277  -12.8137   41.5775 C   0  0  0  0  0  0  0  0  0  0  0  0
   29.8750  -12.6524   40.7979 C   0  0  0  0  0  0  0  0  0  0  0  0
   30.3817  -13.6981   40.0674 C   0  0  0  0  0  0  0  0  0  0  0  0
   29.7061  -14.9061   40.1413 C   0  0  0  0  0  0  0  0  0  0  0  0
   28.5760  -15.0651   40.9091 C   0  0  0  0  0  0  0  0  0  0  0  0
   28.0567  -14.0149   41.6507 C   0  0  0  0  0  0  0  0  0  0  0  0
   32.1632  -12.1542   36.6732 C   0  0  0  0  0  0  0  0  0  0  0  0
   31.3886  -11.3044   36.7705 N   0  0  0  0  0  0  0  0  0  0  0  0
 25 26  1  0  0  0
 26 27  1  0  0  0
 27 28  2  0  0  0
 28 29  1  0  0  0
 29 30  2  0  0  0
 30 31  1  0  0  0
 31 32  2  0  0  0
 32 33  1  0  0  0
 33 34  2  0  0  0
 31 21  1  0  0  0
 21 22  2  0  0  0
 21 23  1  0  0  0
 23  1  1  0  0  0
  1  2  2  0  0  0
  2  3  1  0  0  0
  3  4  2  0  0  0
  4  5  1  0  0  0
  5  6  2  0  0  0
  6 35  1  0  0  0
 35 36  3  0  0  0
  3  7  1  0  0  0
  7  8  1  0  0  0
  8  9  1  0  0  0
  9 10  1  0  0  0
 10 11  1  0  0  0
 11 12  1  0  0  0
 10 13  1  0  0  0
 13 14  2  0  0  0
 14 15  1  0  0  0
 15 16  2  0  0  0
 16 17  1  0  0  0
 17 18  2  0  0  0
 17 19  1  0  0  0
 19 20  3  0  0  0
 34 26  1  0  0  0
  6  1  1  0  0  0
 12  7  1  0  0  0
 18 13  1  0  0  0
 34 29  1  0  0  0
 23 24  1  0  0  0
M  END
> <minimizedAffinity>
0.69298

> <CNNscore>
0.4707890153

> <CNNaffinity>
6.1203322411

> <CNN_VS>
2.8813850880

> <CNNaffinity_variance>
1.0196726322

$$$$
[H]c1c([H])c(C#N)c([H])c(N2C([H])([H])C([H])([H])N(c3c([H])c([H])c(C#N)c(N([H])C(=O)c4c([H])c([H])c5c(c4[H])c([H])c([H])n5C([H])([H])[H])c3[H])C([H])([H])C2([H])[H])c1[H]


 36 40  0  0  0  0  0  0  0  0999 V2000
   37.0243  -19.9503   37.1991 C   0  0  0  0  0  0  0  0  0  0  0  0
   36.7101  -20.7852   38.2413 C   0  0  0  0  0  0  0  0  0  0  0  0
   35.3877  -21.1663   38.5044 C   0  0  0  0  0  0  0  0  0  0  0  0
   34.3925  -20.6817   37.6875 C   0  0  0  0  0  0  0  0  0  0  0  0
   34.6665  -19.8407   36.6305 C   0  0  0  0  0  0  0  0  0  0  0  0
   35.9673  -19.4778   36.3871 C   0  0  0  0  0  0  0  0  0  0  0  0
   35.1000  -22.0474   39.5831 N   0  0  0  0  0  0  0  0  0  0  0  0
   33.7949  -22.6859   39.7320 C   0  0  0  0  0  0  0  0  0  0  0  0
   33.2892  -22.2043   41.1016 C   0  0  0  0  0  0  0  0  0  0  0  0
   34.1762  -22.6619   42.1362 N   0  0  0  0  0  0  0  0  0  0  0  0
   35.5459  -22.1341   42.0105 C   0  0  0  0  0  0  0  0  0  0  0  0
   36.0674  -22.3985   40.6003 C   0  0  0  0  0  0  0  0  0  0  0  0
   33.8122  -23.5380   43.1776 C   0  0  0  0  0  0  0  0  0  0  0  0
   34.7822  -24.1182   43.9775 C   0  0  0  0  0  0  0  0  0  0  0  0
   34.4667  -25.0037   45.0155 C   0  0  0  0  0  0  0  0  0  0  0  0
   33.1448  -25.3027   45.2427 C   0  0  0  0  0  0  0  0  0  0  0  0
   32.1554  -24.7420   44.4645 C   0  0  0  0  0  0  0  0  0  0  0  0
   32.5085  -23.8617   43.4363 C   0  0  0  0  0  0  0  0  0  0  0  0
   30.7934  -25.0872   44.7437 C   0  0  0  0  0  0  0  0  0  0  0  0
   29.6870  -25.3564   44.9632 N   0  0  0  0  0  0  0  0  0  0  0  0
   39.3358  -20.2985   36.3221 C   0  0  0  0  0  0  0  0  0  0  0  0
   39.2446  -21.5196   36.1079 O   0  0  0  0  0  0  0  0  0  0  0  0
   38.3075  -19.5022   36.8404 N   0  0  0  0  0  0  0  0  0  0  0  0
   38.5349  -18.4554   36.9663 H   0  0  0  0  0  0  0  0  0  0  0  0
   44.9153  -17.1922   34.1089 C   0  0  0  0  0  0  0  0  0  0  0  0
   44.4155  -18.1450   35.1088 N   0  0  0  0  0  0  0  0  0  0  0  0
   45.1358  -18.7789   36.0560 C   0  0  0  0  0  0  0  0  0  0  0  0
   44.3162  -19.5934   36.8056 C   0  0  0  0  0  0  0  0  0  0  0  0
   43.0335  -19.4596   36.3027 C   0  0  0  0  0  0  0  0  0  0  0  0
   41.8110  -20.0335   36.6581 C   0  0  0  0  0  0  0  0  0  0  0  0
   40.6619  -19.7192   35.9765 C   0  0  0  0  0  0  0  0  0  0  0  0
   40.7745  -18.8157   34.9314 C   0  0  0  0  0  0  0  0  0  0  0  0
   41.9785  -18.2504   34.5812 C   0  0  0  0  0  0  0  0  0  0  0  0
   43.1447  -18.5614   35.2638 C   0  0  0  0  0  0  0  0  0  0  0  0
   36.2373  -18.5952   35.2747 C   0  0  0  0  0  0  0  0  0  0  0  0
   36.4679  -17.9017   34.3817 N   0  0  0  0  0  0  0  0  0  0  0  0
 25 26  1  0  0  0
 26 27  1  0  0  0
 27 28  2  0  0  0
 28 29  1  0  0  0
 29 30  2  0  0  0
 30 31  1  0  0  0
 31 32  2  0  0  0
 32 33  1  0  0  0
 33 34  2  0  0  0
 31 21  1  0  0  0
 21 22  2  0  0  0
 21 23  1  0  0  0
 23  1  1  0  0  0
  1  2  2  0  0  0
  2  3  1  0  0  0
  3  4  2  0  0  0
  4  5  1  0  0  0
  5  6  2  0  0  0
  6 35  1  0  0  0
 35 36  3  0  0  0
  3  7  1  0  0  0
  7  8  1  0  0  0
  8  9  1  0  0  0
  9 10  1  0  0  0
 10 11  1  0  0  0
 11 12  1  0  0  0
 10 13  1  0  0  0
 13 14  2  0  0  0
 14 15  1  0  0  0
 15 16  2  0  0  0
 16 17  1  0  0  0
 17 18  2  0  0  0
 17 19  1  0  0  0
 19 20  3  0  0  0
 34 26  1  0  0  0
  6  1  1  0  0  0
 12  7  1  0  0  0
 18 13  1  0  0  0
 34 29  1  0  0  0
 23 24  1  0  0  0
M  END
> <minimizedAffinity>
-3.69626

> <CNNscore>
0.4378038049

> <CNNaffinity>
4.9425821304

> <CNN_VS>
2.1638813019

> <CNNaffinity_variance>
0.0206327401

$$$$
[H]c1c([H])c(C#N)c([H])c(N2C([H])([H])C([H])([H])N(c3c([H])c([H])c(C#N)c(N([H])C(=O)c4c([H])c([H])c5c(c4[H])c([H])c([H])n5C([H])([H])[H])c3[H])C([H])([H])C2([H])[H])c1[H]


 36 40  0  0  0  0  0  0  0  0999 V2000
   35.8220  -17.6057   35.7567 C   0  0  0  0  0  0  0  0  0  0  0  0
   36.8269  -18.3849   36.2715 C   0  0  0  0  0  0  0  0  0  0  0  0
   36.8450  -19.7742   36.0909 C   0  0  0  0  0  0  0  0  0  0  0  0
   35.8219  -20.3545   35.3775 C   0  0  0  0  0  0  0  0  0  0  0  0
   34.7940  -19.6070   34.8444 C   0  0  0  0  0  0  0  0  0  0  0  0
   34.7921  -18.2476   35.0306 C   0  0  0  0  0  0  0  0  0  0  0  0
   37.9118  -20.5493   36.6239 N   0  0  0  0  0  0  0  0  0  0  0  0
   37.7268  -21.9383   37.0355 C   0  0  0  0  0  0  0  0  0  0  0  0
   38.0993  -21.9465   38.5271 C   0  0  0  0  0  0  0  0  0  0  0  0
   39.4777  -21.5707   38.6866 N   0  0  0  0  0  0  0  0  0  0  0  0
   39.7730  -20.2079   38.2108 C   0  0  0  0  0  0  0  0  0  0  0  0
   39.2579  -20.0428   36.7832 C   0  0  0  0  0  0  0  0  0  0  0  0
   40.4793  -22.3996   39.2287 C   0  0  0  0  0  0  0  0  0  0  0  0
   40.2812  -23.7665   39.3277 C   0  0  0  0  0  0  0  0  0  0  0  0
   41.2442  -24.6261   39.8706 C   0  0  0  0  0  0  0  0  0  0  0  0
   42.4258  -24.0868   40.3190 C   0  0  0  0  0  0  0  0  0  0  0  0
   42.6540  -22.7304   40.2347 C   0  0  0  0  0  0  0  0  0  0  0  0
   41.6688  -21.9025   39.6864 C   0  0  0  0  0  0  0  0  0  0  0  0
   43.9028  -22.2198   40.7166 C   0  0  0  0  0  0  0  0  0  0  0  0
   44.9188  -21.8086   41.0952 N   0  0  0  0  0  0  0  0  0  0  0  0
   34.6324  -15.5313   36.4743 C   0  0  0  0  0  0  0  0  0  0  0  0
   33.6452  -16.0823   36.9911 O   0  0  0  0  0  0  0  0  0  0  0  0
   35.6989  -16.2103   35.8729 N   0  0  0  0  0  0  0  0  0  0  0  0
   36.4883  -15.5944   35.4716 H   0  0  0  0  0  0  0  0  0  0  0  0
   35.1862   -8.8019   36.1799 C   0  0  0  0  0  0  0  0  0  0  0  0
   34.4153   -9.8950   36.7867 N   0  0  0  0  0  0  0  0  0  0  0  0
   33.3771   -9.7791   37.6390 C   0  0  0  0  0  0  0  0  0  0  0  0
   32.9138  -11.0277   37.9905 C   0  0  0  0  0  0  0  0  0  0  0  0
   33.6971  -11.9574   37.3287 C   0  0  0  0  0  0  0  0  0  0  0  0
   33.6925  -13.3536   37.3016 C   0  0  0  0  0  0  0  0  0  0  0  0
   34.6022  -14.0453   36.5414 C   0  0  0  0  0  0  0  0  0  0  0  0
   35.5137  -13.2981   35.8120 C   0  0  0  0  0  0  0  0  0  0  0  0
   35.5185  -11.9229   35.8387 C   0  0  0  0  0  0  0  0  0  0  0  0
   34.6034  -11.2153   36.6033 C   0  0  0  0  0  0  0  0  0  0  0  0
   33.7067  -17.4786   34.4649 C   0  0  0  0  0  0  0  0  0  0  0  0
   32.8290  -16.8804   34.0139 N   0  0  0  0  0  0  0  0  0  0  0  0
 25 26  1  0  0  0
 26 27  1  0  0  0
 27 28  2  0  0  0
 28 29  1  0  0  0
 29 30  2  0  0  0
 30 31  1  0  0  0
 31 32  2  0  0  0
 32 33  1  0  0  0
 33 34  2  0  0  0
 31 21  1  0  0  0
 21 22  2  0  0  0
 21 23  1  0  0  0
 23  1  1  0  0  0
  1  2  2  0  0  0
  2  3  1  0  0  0
  3  4  2  0  0  0
  4  5  1  0  0  0
  5  6  2  0  0  0
  6 35  1  0  0  0
 35 36  3  0  0  0
  3  7  1  0  0  0
  7  8  1  0  0  0
  8  9  1  0  0  0
  9 10  1  0  0  0
 10 11  1  0  0  0
 11 12  1  0  0  0
 10 13  1  0  0  0
 13 14  2  0  0  0
 14 15  1  0  0  0
 15 16  2  0  0  0
 16 17  1  0  0  0
 17 18  2  0  0  0
 17 19  1  0  0  0
 19 20  3  0  0  0
 34 26  1  0  0  0
  6  1  1  0  0  0
 12  7  1  0  0  0
 18 13  1  0  0  0
 34 29  1  0  0  0
 23 24  1  0  0  0
M  END
> <minimizedAffinity>
-3.42813

> <CNNscore>
0.4319218099

> <CNNaffinity>
5.9289741516

> <CNN_VS>
2.5608532429

> <CNNaffinity_variance>
0.1924740970

$$$$
[H]c1c([H])c(C#N)c([H])c(N2C([H])([H])C([H])([H])N(c3c([H])c([H])c(C#N)c(N([H])C(=O)c4c([H])c([H])c5c(c4[H])c([H])c([H])n5C([H])([H])[H])c3[H])C([H])([H])C2([H])[H])c1[H]


 36 40  0  0  0  0  0  0  0  0999 V2000
   38.2327  -20.9533   36.5626 C   0  0  0  0  0  0  0  0  0  0  0  0
   36.9632  -21.4679   36.4882 C   0  0  0  0  0  0  0  0  0  0  0  0
   35.8312  -20.6523   36.6159 C   0  0  0  0  0  0  0  0  0  0  0  0
   36.0158  -19.3045   36.8207 C   0  0  0  0  0  0  0  0  0  0  0  0
   37.2744  -18.7485   36.9018 C   0  0  0  0  0  0  0  0  0  0  0  0
   38.3720  -19.5620   36.7743 C   0  0  0  0  0  0  0  0  0  0  0  0
   34.5297  -21.2170   36.5162 N   0  0  0  0  0  0  0  0  0  0  0  0
   33.5464  -20.7267   35.5540 C   0  0  0  0  0  0  0  0  0  0  0  0
   32.3610  -20.2698   36.4199 C   0  0  0  0  0  0  0  0  0  0  0  0
   31.8219  -21.3924   37.1381 N   0  0  0  0  0  0  0  0  0  0  0  0
   32.7817  -22.0077   38.0713 C   0  0  0  0  0  0  0  0  0  0  0  0
   34.0803  -22.3234   37.3334 C   0  0  0  0  0  0  0  0  0  0  0  0
   30.5140  -21.8924   36.9837 C   0  0  0  0  0  0  0  0  0  0  0  0
   29.8249  -21.7006   35.7982 C   0  0  0  0  0  0  0  0  0  0  0  0
   28.5195  -22.1695   35.6055 C   0  0  0  0  0  0  0  0  0  0  0  0
   27.9068  -22.8435   36.6343 C   0  0  0  0  0  0  0  0  0  0  0  0
   28.5653  -23.0510   37.8269 C   0  0  0  0  0  0  0  0  0  0  0  0
   29.8687  -22.5679   37.9831 C   0  0  0  0  0  0  0  0  0  0  0  0
   27.8809  -23.7596   38.8670 C   0  0  0  0  0  0  0  0  0  0  0  0
   27.3376  -24.3328   39.7161 N   0  0  0  0  0  0  0  0  0  0  0  0
   40.0121  -22.1175   35.2543 C   0  0  0  0  0  0  0  0  0  0  0  0
   39.5270  -21.9348   34.1245 O   0  0  0  0  0  0  0  0  0  0  0  0
   39.4367  -21.6700   36.4496 N   0  0  0  0  0  0  0  0  0  0  0  0
   39.9787  -21.9006   37.3532 H   0  0  0  0  0  0  0  0  0  0  0  0
   45.7470  -25.5700   34.3218 C   0  0  0  0  0  0  0  0  0  0  0  0
   44.8959  -24.9552   35.3489 N   0  0  0  0  0  0  0  0  0  0  0  0
   45.1192  -24.9300   36.6784 C   0  0  0  0  0  0  0  0  0  0  0  0
   44.0974  -24.2615   37.3156 C   0  0  0  0  0  0  0  0  0  0  0  0
   43.2024  -23.8547   36.3411 C   0  0  0  0  0  0  0  0  0  0  0  0
   41.9988  -23.1486   36.3944 C   0  0  0  0  0  0  0  0  0  0  0  0
   41.2942  -22.8722   35.2493 C   0  0  0  0  0  0  0  0  0  0  0  0
   41.8303  -23.3236   34.0535 C   0  0  0  0  0  0  0  0  0  0  0  0
   43.0157  -24.0192   34.0008 C   0  0  0  0  0  0  0  0  0  0  0  0
   43.7348  -24.3030   35.1520 C   0  0  0  0  0  0  0  0  0  0  0  0
   39.6846  -18.9628   36.8618 C   0  0  0  0  0  0  0  0  0  0  0  0
   40.7387  -18.5001   36.9410 N   0  0  0  0  0  0  0  0  0  0  0  0
 25 26  1  0  0  0
 26 27  1  0  0  0
 27 28  2  0  0  0
 28 29  1  0  0  0
 29 30  2  0  0  0
 30 31  1  0  0  0
 31 32  2  0  0  0
 32 33  1  0  0  0
 33 34  2  0  0  0
 31 21  1  0  0  0
 21 22  2  0  0  0
 21 23  1  0  0  0
 23  1  1  0  0  0
  1  2  2  0  0  0
  2  3  1  0  0  0
  3  4  2  0  0  0
  4  5  1  0  0  0
  5  6  2  0  0  0
  6 35  1  0  0  0
 35 36  3  0  0  0
  3  7  1  0  0  0
  7  8  1  0  0  0
  8  9  1  0  0  0
  9 10  1  0  0  0
 10 11  1  0  0  0
 11 12  1  0  0  0
 10 13  1  0  0  0
 13 14  2  0  0  0
 14 15  1  0  0  0
 15 16  2  0  0  0
 16 17  1  0  0  0
 17 18  2  0  0  0
 17 19  1  0  0  0
 19 20  3  0  0  0
 34 26  1  0  0  0
  6  1  1  0  0  0
 12  7  1  0  0  0
 18 13  1  0  0  0
 34 29  1  0  0  0
 23 24  1  0  0  0
M  END
> <minimizedAffinity>
-3.73767

> <CNNscore>
0.4231622815

> <CNNaffinity>
5.2023916245

> <CNN_VS>
2.2014558315

> <CNNaffinity_variance>
0.1273265034

$$$$
[H]c1c([H])c(C#N)c([H])c(N2C([H])([H])C([H])([H])N(c3c([H])c([H])c(C#N)c(N([H])C(=O)c4c([H])c([H])c5c(c4[H])c([H])c([H])n5C([H])([H])[H])c3[H])C([H])([H])C2([H])[H])c1[H]


 36 40  0  0  0  0  0  0  0  0999 V2000
   38.5911  -19.8797   34.9381 C   0  0  0  0  0  0  0  0  0  0  0  0
   37.2663  -20.0371   35.2574 C   0  0  0  0  0  0  0  0  0  0  0  0
   36.2783  -19.1956   34.7296 C   0  0  0  0  0  0  0  0  0  0  0  0
   36.6641  -18.1918   33.8717 C   0  0  0  0  0  0  0  0  0  0  0  0
   37.9845  -18.0001   33.5261 C   0  0  0  0  0  0  0  0  0  0  0  0
   38.9391  -18.8337   34.0522 C   0  0  0  0  0  0  0  0  0  0  0  0
   34.9121  -19.3986   35.0688 N   0  0  0  0  0  0  0  0  0  0  0  0
   34.4548  -19.4155   36.4557 C   0  0  0  0  0  0  0  0  0  0  0  0
   33.8285  -20.8083   36.6334 C   0  0  0  0  0  0  0  0  0  0  0  0
   32.7051  -20.9532   35.7483 N   0  0  0  0  0  0  0  0  0  0  0  0
   33.0652  -20.8585   34.3228 C   0  0  0  0  0  0  0  0  0  0  0  0
   33.8689  -19.5829   34.0831 C   0  0  0  0  0  0  0  0  0  0  0  0
   31.3745  -21.1551   36.1646 C   0  0  0  0  0  0  0  0  0  0  0  0
   30.3581  -20.3486   35.6812 C   0  0  0  0  0  0  0  0  0  0  0  0
   29.0240  -20.5058   36.0769 C   0  0  0  0  0  0  0  0  0  0  0  0
   28.7201  -21.4982   36.9774 C   0  0  0  0  0  0  0  0  0  0  0  0
   29.7086  -22.3178   37.4775 C   0  0  0  0  0  0  0  0  0  0  0  0
   31.0303  -22.1310   37.0594 C   0  0  0  0  0  0  0  0  0  0  0  0
   29.3378  -23.3367   38.4137 C   0  0  0  0  0  0  0  0  0  0  0  0
   29.0342  -24.1691   39.1618 N   0  0  0  0  0  0  0  0  0  0  0  0
   40.3939  -20.4280   36.5760 C   0  0  0  0  0  0  0  0  0  0  0  0
   40.1817  -19.4937   37.3679 O   0  0  0  0  0  0  0  0  0  0  0  0
   39.6648  -20.6587   35.4032 N   0  0  0  0  0  0  0  0  0  0  0  0
   39.9636  -21.5145   34.8187 H   0  0  0  0  0  0  0  0  0  0  0  0
   45.0475  -24.5831   39.1755 C   0  0  0  0  0  0  0  0  0  0  0  0
   44.6987  -23.8065   37.9786 N   0  0  0  0  0  0  0  0  0  0  0  0
   45.4034  -23.7235   36.8321 C   0  0  0  0  0  0  0  0  0  0  0  0
   44.7561  -22.8981   35.9394 C   0  0  0  0  0  0  0  0  0  0  0  0
   43.6014  -22.4501   36.5575 C   0  0  0  0  0  0  0  0  0  0  0  0
   42.5716  -21.6029   36.1430 C   0  0  0  0  0  0  0  0  0  0  0  0
   41.5174  -21.3181   36.9747 C   0  0  0  0  0  0  0  0  0  0  0  0
   41.5268  -21.9056   38.2300 C   0  0  0  0  0  0  0  0  0  0  0  0
   42.5411  -22.7399   38.6385 C   0  0  0  0  0  0  0  0  0  0  0  0
   43.6100  -23.0339   37.8055 C   0  0  0  0  0  0  0  0  0  0  0  0
   40.3191  -18.6190   33.6794 C   0  0  0  0  0  0  0  0  0  0  0  0
   41.4263  -18.4556   33.3984 N   0  0  0  0  0  0  0  0  0  0  0  0
 25 26  1  0  0  0
 26 27  1  0  0  0
 27 28  2  0  0  0
 28 29  1  0  0  0
 29 30  2  0  0  0
 30 31  1  0  0  0
 31 32  2  0  0  0
 32 33  1  0  0  0
 33 34  2  0  0  0
 31 21  1  0  0  0
 21 22  2  0  0  0
 21 23  1  0  0  0
 23  1  1  0  0  0
  1  2  2  0  0  0
  2  3  1  0  0  0
  3  4  2  0  0  0
  4  5  1  0  0  0
  5  6  2  0  0  0
  6 35  1  0  0  0
 35 36  3  0  0  0
  3  7  1  0  0  0
  7  8  1  0  0  0
  8  9  1  0  0  0
  9 10  1  0  0  0
 10 11  1  0  0  0
 11 12  1  0  0  0
 10 13  1  0  0  0
 13 14  2  0  0  0
 14 15  1  0  0  0
 15 16  2  0  0  0
 16 17  1  0  0  0
 17 18  2  0  0  0
 17 19  1  0  0  0
 19 20  3  0  0  0
 34 26  1  0  0  0
  6  1  1  0  0  0
 12  7  1  0  0  0
 18 13  1  0  0  0
 34 29  1  0  0  0
 23 24  1  0  0  0
M  END
> <minimizedAffinity>
-4.96882

> <CNNscore>
0.4110990167

> <CNNaffinity>
5.1879339218

> <CNN_VS>
2.1327545643

> <CNNaffinity_variance>
0.2145204991

$$$$
[H]c1c([H])c(C#N)c([H])c(N2C([H])([H])C([H])([H])N(c3c([H])c([H])c(C#N)c(N([H])C(=O)c4c([H])c([H])c5c(c4[H])c([H])c([H])n5C([H])([H])[H])c3[H])C([H])([H])C2([H])[H])c1[H]


 36 40  0  0  0  0  0  0  0  0999 V2000
   35.6555  -13.7436   37.5001 C   0  0  0  0  0  0  0  0  0  0  0  0
   34.3687  -13.4268   37.8544 C   0  0  0  0  0  0  0  0  0  0  0  0
   33.8881  -12.1129   37.7787 C   0  0  0  0  0  0  0  0  0  0  0  0
   34.7414  -11.1287   37.3362 C   0  0  0  0  0  0  0  0  0  0  0  0
   36.0413  -11.4056   36.9711 C   0  0  0  0  0  0  0  0  0  0  0  0
   36.4954  -12.6980   37.0513 C   0  0  0  0  0  0  0  0  0  0  0  0
   32.5427  -11.8232   38.1377 N   0  0  0  0  0  0  0  0  0  0  0  0
   32.0118  -12.1371   39.4616 C   0  0  0  0  0  0  0  0  0  0  0  0
   30.8410  -13.0945   39.1854 C   0  0  0  0  0  0  0  0  0  0  0  0
   29.8375  -12.4236   38.4046 N   0  0  0  0  0  0  0  0  0  0  0  0
   30.3170  -11.9900   37.0807 C   0  0  0  0  0  0  0  0  0  0  0  0
   31.6029  -11.1833   37.2426 C   0  0  0  0  0  0  0  0  0  0  0  0
   28.5186  -12.1756   38.8329 C   0  0  0  0  0  0  0  0  0  0  0  0
   27.5967  -11.6056   37.9712 C   0  0  0  0  0  0  0  0  0  0  0  0
   26.2792  -11.3306   38.3581 C   0  0  0  0  0  0  0  0  0  0  0  0
   25.8946  -11.6403   39.6405 C   0  0  0  0  0  0  0  0  0  0  0  0
   26.7881  -12.2083   40.5225 C   0  0  0  0  0  0  0  0  0  0  0  0
   28.0961  -12.4686   40.1006 C   0  0  0  0  0  0  0  0  0  0  0  0
   26.3357  -12.5115   41.8475 C   0  0  0  0  0  0  0  0  0  0  0  0
   25.9781  -12.7664   42.9208 N   0  0  0  0  0  0  0  0  0  0  0  0
   35.6500  -16.2068   37.0927 C   0  0  0  0  0  0  0  0  0  0  0  0
   34.5090  -16.2870   36.6061 O   0  0  0  0  0  0  0  0  0  0  0  0
   36.2455  -15.0190   37.5341 N   0  0  0  0  0  0  0  0  0  0  0  0
   37.2454  -15.1071   37.9288 H   0  0  0  0  0  0  0  0  0  0  0  0
   38.1608  -22.4290   37.9040 C   0  0  0  0  0  0  0  0  0  0  0  0
   38.4521  -21.1059   37.3367 N   0  0  0  0  0  0  0  0  0  0  0  0
   39.5690  -20.7335   36.6796 C   0  0  0  0  0  0  0  0  0  0  0  0
   39.4741  -19.4132   36.2988 C   0  0  0  0  0  0  0  0  0  0  0  0
   38.2471  -18.9466   36.7379 C   0  0  0  0  0  0  0  0  0  0  0  0
   37.6148  -17.7052   36.6409 C   0  0  0  0  0  0  0  0  0  0  0  0
   36.3667  -17.5078   37.1769 C   0  0  0  0  0  0  0  0  0  0  0  0
   35.7736  -18.5882   37.8110 C   0  0  0  0  0  0  0  0  0  0  0  0
   36.3963  -19.8109   37.9067 C   0  0  0  0  0  0  0  0  0  0  0  0
   37.6568  -20.0202   37.3683 C   0  0  0  0  0  0  0  0  0  0  0  0
   37.8611  -12.9712   36.6645 C   0  0  0  0  0  0  0  0  0  0  0  0
   38.9542  -13.1703   36.3531 N   0  0  0  0  0  0  0  0  0  0  0  0
 25 26  1  0  0  0
 26 27  1  0  0  0
 27 28  2  0  0  0
 28 29  1  0  0  0
 29 30  2  0  0  0
 30 31  1  0  0  0
 31 32  2  0  0  0
 32 33  1  0  0  0
 33 34  2  0  0  0
 31 21  1  0  0  0
 21 22  2  0  0  0
 21 23  1  0  0  0
 23  1  1  0  0  0
  1  2  2  0  0  0
  2  3  1  0  0  0
  3  4  2  0  0  0
  4  5  1  0  0  0
  5  6  2  0  0  0
  6 35  1  0  0  0
 35 36  3  0  0  0
  3  7  1  0  0  0
  7  8  1  0  0  0
  8  9  1  0  0  0
  9 10  1  0  0  0
 10 11  1  0  0  0
 11 12  1  0  0  0
 10 13  1  0  0  0
 13 14  2  0  0  0
 14 15  1  0  0  0
 15 16  2  0  0  0
 16 17  1  0  0  0
 17 18  2  0  0  0
 17 19  1  0  0  0
 19 20  3  0  0  0
 34 26  1  0  0  0
  6  1  1  0  0  0
 12  7  1  0  0  0
 18 13  1  0  0  0
 34 29  1  0  0  0
 23 24  1  0  0  0
M  END
> <minimizedAffinity>
-2.51629

> <CNNscore>
0.3930548429

> <CNNaffinity>
6.3006377220

> <CNN_VS>
2.4764962196

> <CNNaffinity_variance>
0.2021646798

$$$$
[H]c1c([H])c(C#N)c([H])c(N2C([H])([H])C([H])([H])N(c3c([H])c([H])c(C#N)c(N([H])C(=O)c4c([H])c([H])c5c(c4[H])c([H])c([H])n5C([H])([H])[H])c3[H])C([H])([H])C2([H])[H])c1[H]


 36 40  0  0  0  0  0  0  0  0999 V2000
   38.1381  -20.4148   36.2768 C   0  0  0  0  0  0  0  0  0  0  0  0
   36.7988  -20.7096   36.2418 C   0  0  0  0  0  0  0  0  0  0  0  0
   35.8247  -19.7303   36.4767 C   0  0  0  0  0  0  0  0  0  0  0  0
   36.2394  -18.4470   36.7479 C   0  0  0  0  0  0  0  0  0  0  0  0
   37.5751  -18.1102   36.7926 C   0  0  0  0  0  0  0  0  0  0  0  0
   38.5158  -19.0817   36.5599 C   0  0  0  0  0  0  0  0  0  0  0  0
   34.4444  -20.0676   36.4153 N   0  0  0  0  0  0  0  0  0  0  0  0
   33.7945  -20.8558   37.4591 C   0  0  0  0  0  0  0  0  0  0  0  0
   33.2620  -22.0965   36.7237 C   0  0  0  0  0  0  0  0  0  0  0  0
   32.2931  -21.6997   35.7386 N   0  0  0  0  0  0  0  0  0  0  0  0
   32.8464  -20.8240   34.6910 C   0  0  0  0  0  0  0  0  0  0  0  0
   33.5723  -19.6479   35.3396 C   0  0  0  0  0  0  0  0  0  0  0  0
   30.9368  -22.0801   35.7464 C   0  0  0  0  0  0  0  0  0  0  0  0
   29.9504  -21.1551   36.0444 C   0  0  0  0  0  0  0  0  0  0  0  0
   28.5915  -21.4919   36.0755 C   0  0  0  0  0  0  0  0  0  0  0  0
   28.2314  -22.7889   35.7992 C   0  0  0  0  0  0  0  0  0  0  0  0
   29.1888  -23.7336   35.4991 C   0  0  0  0  0  0  0  0  0  0  0  0
   30.5367  -23.3604   35.4775 C   0  0  0  0  0  0  0  0  0  0  0  0
   28.7595  -25.0712   35.2188 C   0  0  0  0  0  0  0  0  0  0  0  0
   28.4061  -26.1545   35.0032 N   0  0  0  0  0  0  0  0  0  0  0  0
   39.7408  -22.1838   37.0087 C   0  0  0  0  0  0  0  0  0  0  0  0
   39.3447  -22.2843   38.1827 O   0  0  0  0  0  0  0  0  0  0  0  0
   39.2002  -21.3093   36.0583 N   0  0  0  0  0  0  0  0  0  0  0  0
   39.6469  -21.3393   35.0769 H   0  0  0  0  0  0  0  0  0  0  0  0
   45.4177  -25.5932   35.6570 C   0  0  0  0  0  0  0  0  0  0  0  0
   43.9557  -25.7183   35.7219 N   0  0  0  0  0  0  0  0  0  0  0  0
   43.2238  -26.8206   35.4629 C   0  0  0  0  0  0  0  0  0  0  0  0
   41.8843  -26.5476   35.6311 C   0  0  0  0  0  0  0  0  0  0  0  0
   41.7802  -25.2205   36.0102 C   0  0  0  0  0  0  0  0  0  0  0  0
   40.6889  -24.4038   36.3138 C   0  0  0  0  0  0  0  0  0  0  0  0
   40.8705  -23.0906   36.6696 C   0  0  0  0  0  0  0  0  0  0  0  0
   42.1743  -22.6222   36.7116 C   0  0  0  0  0  0  0  0  0  0  0  0
   43.2494  -23.4264   36.4126 C   0  0  0  0  0  0  0  0  0  0  0  0
   43.0761  -24.7542   36.0523 C   0  0  0  0  0  0  0  0  0  0  0  0
   39.9121  -18.7116   36.6104 C   0  0  0  0  0  0  0  0  0  0  0  0
   41.0274  -18.4163   36.6314 N   0  0  0  0  0  0  0  0  0  0  0  0
 25 26  1  0  0  0
 26 27  1  0  0  0
 27 28  2  0  0  0
 28 29  1  0  0  0
 29 30  2  0  0  0
 30 31  1  0  0  0
 31 32  2  0  0  0
 32 33  1  0  0  0
 33 34  2  0  0  0
 31 21  1  0  0  0
 21 22  2  0  0  0
 21 23  1  0  0  0
 23  1  1  0  0  0
  1  2  2  0  0  0
  2  3  1  0  0  0
  3  4  2  0  0  0
  4  5  1  0  0  0
  5  6  2  0  0  0
  6 35  1  0  0  0
 35 36  3  0  0  0
  3  7  1  0  0  0
  7  8  1  0  0  0
  8  9  1  0  0  0
  9 10  1  0  0  0
 10 11  1  0  0  0
 11 12  1  0  0  0
 10 13  1  0  0  0
 13 14  2  0  0  0
 14 15  1  0  0  0
 15 16  2  0  0  0
 16 17  1  0  0  0
 17 18  2  0  0  0
 17 19  1  0  0  0
 19 20  3  0  0  0
 34 26  1  0  0  0
  6  1  1  0  0  0
 12  7  1  0  0  0
 18 13  1  0  0  0
 34 29  1  0  0  0
 23 24  1  0  0  0
M  END
> <minimizedAffinity>
-4.49096

> <CNNscore>
0.3710183501

> <CNNaffinity>
5.3092336655

> <CNN_VS>
1.9698231220

> <CNNaffinity_variance>
0.0726703703

$$$$
[H]c1c([H])c(S(=O)(=O)N([H])C([H])([H])c2c([H])c3c([H])c(Cl)c([H])c([H])c3n2[H])c([H])c([H])c1F


 24 26  0  0  0  0  0  0  0  0999 V2000
   31.9480  -18.5243   35.6969 N   0  0  0  0  0  0  0  0  0  0  0  0
   30.9654  -18.4638   35.3764 H   0  0  0  0  0  0  0  0  0  0  0  0
   32.4083  -20.1810   35.9934 S   0  0  0  0  0  0  0  0  0  0  0  0
   33.4555  -20.5983   34.9901 O   0  0  0  0  0  0  0  0  0  0  0  0
   33.0494  -20.3090   37.3579 O   0  0  0  0  0  0  0  0  0  0  0  0
   27.6033  -23.6246   35.5496 F   0  0  0  0  0  0  0  0  0  0  0  0
   28.7151  -22.8509   35.6476 C   0  0  0  0  0  0  0  0  0  0  0  0
   28.6155  -21.5060   35.9392 C   0  0  0  0  0  0  0  0  0  0  0  0
   29.7232  -20.6910   36.0461 C   0  0  0  0  0  0  0  0  0  0  0  0
   31.0027  -21.2071   35.8600 C   0  0  0  0  0  0  0  0  0  0  0  0
   31.0930  -22.5524   35.5689 C   0  0  0  0  0  0  0  0  0  0  0  0
   29.9820  -23.3636   35.4629 C   0  0  0  0  0  0  0  0  0  0  0  0
   32.8507  -18.0028   34.7154 C   0  0  0  0  0  0  0  0  0  0  0  0
   33.7168  -16.9350   35.3265 C   0  0  0  0  0  0  0  0  0  0  0  0
   35.0355  -17.0243   35.7140 C   0  0  0  0  0  0  0  0  0  0  0  0
   35.4777  -15.8249   36.2333 C   0  0  0  0  0  0  0  0  0  0  0  0
   36.6640  -15.3567   36.7556 C   0  0  0  0  0  0  0  0  0  0  0  0
   36.7730  -14.0589   37.2009 C   0  0  0  0  0  0  0  0  0  0  0  0
   38.2390  -13.3936   37.8737 Cl  0  0  0  0  0  0  0  0  0  0  0  0
   35.6635  -13.2420   37.1098 C   0  0  0  0  0  0  0  0  0  0  0  0
   34.4693  -13.6852   36.5929 C   0  0  0  0  0  0  0  0  0  0  0  0
   34.3606  -14.9855   36.1469 C   0  0  0  0  0  0  0  0  0  0  0  0
   33.3303  -15.6769   35.6031 N   0  0  0  0  0  0  0  0  0  0  0  0
   32.3623  -15.2824   35.4228 H   0  0  0  0  0  0  0  0  0  0  0  0
  6  7  1  0  0  0
  7  8  2  0  0  0
  8  9  1  0  0  0
  9 10  2  0  0  0
 10 11  1  0  0  0
 11 12  2  0  0  0
 10  3  1  0  0  0
  3  4  2  0  0  0
  3  5  2  0  0  0
  3  1  1  0  0  0
  1 13  1  0  0  0
 13 14  1  0  0  0
 14 15  2  0  0  0
 15 16  1  0  0  0
 16 17  2  0  0  0
 17 18  1  0  0  0
 18 19  1  0  0  0
 18 20  2  0  0  0
 20 21  1  0  0  0
 21 22  2  0  0  0
 22 23  1  0  0  0
 12  7  1  0  0  0
 23 14  1  0  0  0
 22 16  1  0  0  0
  1  2  1  0  0  0
 23 24  1  0  0  0
M  END
> <minimizedAffinity>
-7.77580

> <CNNscore>
0.7843164802

> <CNNaffinity>
4.8406267166

> <CNN_VS>
3.7965834141

> <CNNaffinity_variance>
0.6872379184

$$$$
[H]c1c([H])c(S(=O)(=O)N([H])C([H])([H])c2c([H])c3c([H])c(Cl)c([H])c([H])c3n2[H])c([H])c([H])c1F


 24 26  0  0  0  0  0  0  0  0999 V2000
   33.1437  -17.2975   35.3247 N   0  0  0  0  0  0  0  0  0  0  0  0
   32.5294  -17.4871   36.1361 H   0  0  0  0  0  0  0  0  0  0  0  0
   34.8098  -17.6482   35.7059 S   0  0  0  0  0  0  0  0  0  0  0  0
   34.8675  -18.7347   36.7516 O   0  0  0  0  0  0  0  0  0  0  0  0
   35.5219  -18.1911   34.4863 O   0  0  0  0  0  0  0  0  0  0  0  0
   37.4784  -12.7631   37.7452 F   0  0  0  0  0  0  0  0  0  0  0  0
   36.8573  -13.8716   37.2655 C   0  0  0  0  0  0  0  0  0  0  0  0
   37.1236  -15.1160   37.7984 C   0  0  0  0  0  0  0  0  0  0  0  0
   36.5115  -16.2622   37.3358 C   0  0  0  0  0  0  0  0  0  0  0  0
   35.5874  -16.2014   36.2963 C   0  0  0  0  0  0  0  0  0  0  0  0
   35.3272  -14.9534   35.7695 C   0  0  0  0  0  0  0  0  0  0  0  0
   35.9421  -13.8097   36.2356 C   0  0  0  0  0  0  0  0  0  0  0  0
   32.7870  -18.1072   34.1989 C   0  0  0  0  0  0  0  0  0  0  0  0
   31.9248  -19.2575   34.6431 C   0  0  0  0  0  0  0  0  0  0  0  0
   30.6176  -19.2265   35.0758 C   0  0  0  0  0  0  0  0  0  0  0  0
   30.1753  -20.4937   35.3956 C   0  0  0  0  0  0  0  0  0  0  0  0
   28.9976  -21.0359   35.8628 C   0  0  0  0  0  0  0  0  0  0  0  0
   28.8854  -22.3898   36.0840 C   0  0  0  0  0  0  0  0  0  0  0  0
   27.4297  -23.1499   36.6736 Cl  0  0  0  0  0  0  0  0  0  0  0  0
   29.9829  -23.1868   35.8253 C   0  0  0  0  0  0  0  0  0  0  0  0
   31.1684  -22.6702   35.3589 C   0  0  0  0  0  0  0  0  0  0  0  0
   31.2803  -21.3137   35.1375 C   0  0  0  0  0  0  0  0  0  0  0  0
   32.3041  -20.5469   34.6913 N   0  0  0  0  0  0  0  0  0  0  0  0
   33.2627  -20.9116   34.4203 H   0  0  0  0  0  0  0  0  0  0  0  0
  6  7  1  0  0  0
  7  8  2  0  0  0
  8  9  1  0  0  0
  9 10  2  0  0  0
 10 11  1  0  0  0
 11 12  2  0  0  0
 10  3  1  0  0  0
  3  4  2  0  0  0
  3  5  2  0  0  0
  3  1  1  0  0  0
  1 13  1  0  0  0
 13 14  1  0  0  0
 14 15  2  0  0  0
 15 16  1  0  0  0
 16 17  2  0  0  0
 17 18  1  0  0  0
 18 19  1  0  0  0
 18 20  2  0  0  0
 20 21  1  0  0  0
 21 22  2  0  0  0
 22 23  1  0  0  0
 12  7  1  0  0  0
 23 14  1  0  0  0
 22 16  1  0  0  0
  1  2  1  0  0  0
 23 24  1  0  0  0
M  END
> <minimizedAffinity>
-6.91546

> <CNNscore>
0.7467219234

> <CNNaffinity>
4.7172842026

> <CNN_VS>
3.5224995613

> <CNNaffinity_variance>
0.9137825966

$$$$
[H]c1c([H])c(S(=O)(=O)N([H])C([H])([H])c2c([H])c3c([H])c(Cl)c([H])c([H])c3n2[H])c([H])c([H])c1F


 24 26  0  0  0  0  0  0  0  0999 V2000
   31.9128  -18.2930   35.7769 N   0  0  0  0  0  0  0  0  0  0  0  0
   31.3972  -17.4143   35.9610 H   0  0  0  0  0  0  0  0  0  0  0  0
   30.8946  -19.4586   34.9713 S   0  0  0  0  0  0  0  0  0  0  0  0
   29.5941  -18.8021   34.5779 O   0  0  0  0  0  0  0  0  0  0  0  0
   31.5454  -19.9210   33.6860 O   0  0  0  0  0  0  0  0  0  0  0  0
   29.9164  -24.0272   38.6201 F   0  0  0  0  0  0  0  0  0  0  0  0
   30.1218  -22.9799   37.7803 C   0  0  0  0  0  0  0  0  0  0  0  0
   31.3909  -22.4797   37.5734 C   0  0  0  0  0  0  0  0  0  0  0  0
   31.6357  -21.4177   36.7279 C   0  0  0  0  0  0  0  0  0  0  0  0
   30.5915  -20.8032   36.0421 C   0  0  0  0  0  0  0  0  0  0  0  0
   29.3263  -21.3097   36.2548 C   0  0  0  0  0  0  0  0  0  0  0  0
   29.0864  -22.3722   37.1017 C   0  0  0  0  0  0  0  0  0  0  0  0
   33.0471  -18.0661   34.9330 C   0  0  0  0  0  0  0  0  0  0  0  0
   33.8877  -16.9484   35.4878 C   0  0  0  0  0  0  0  0  0  0  0  0
   35.2068  -16.9878   35.8823 C   0  0  0  0  0  0  0  0  0  0  0  0
   35.6210  -15.7529   36.3374 C   0  0  0  0  0  0  0  0  0  0  0  0
   36.7951  -15.2315   36.8363 C   0  0  0  0  0  0  0  0  0  0  0  0
   36.8743  -13.9095   37.2116 C   0  0  0  0  0  0  0  0  0  0  0  0
   38.3232  -13.1772   37.8509 Cl  0  0  0  0  0  0  0  0  0  0  0  0
   35.7476  -13.1232   37.0743 C   0  0  0  0  0  0  0  0  0  0  0  0
   34.5650  -13.6196   36.5794 C   0  0  0  0  0  0  0  0  0  0  0  0
   34.4862  -14.9441   36.2036 C   0  0  0  0  0  0  0  0  0  0  0  0
   33.4730  -15.6861   35.6956 N   0  0  0  0  0  0  0  0  0  0  0  0
   32.4972  -15.3231   35.4923 H   0  0  0  0  0  0  0  0  0  0  0  0
  6  7  1  0  0  0
  7  8  2  0  0  0
  8  9  1  0  0  0
  9 10  2  0  0  0
 10 11  1  0  0  0
 11 12  2  0  0  0
 10  3  1  0  0  0
  3  4  2  0  0  0
  3  5  2  0  0  0
  3  1  1  0  0  0
  1 13  1  0  0  0
 13 14  1  0  0  0
 14 15  2  0  0  0
 15 16  1  0  0  0
 16 17  2  0  0  0
 17 18  1  0  0  0
 18 19  1  0  0  0
 18 20  2  0  0  0
 20 21  1  0  0  0
 21 22  2  0  0  0
 22 23  1  0  0  0
 12  7  1  0  0  0
 23 14  1  0  0  0
 22 16  1  0  0  0
  1  2  1  0  0  0
 23 24  1  0  0  0
M  END
> <minimizedAffinity>
-7.49330

> <CNNscore>
0.6278143525

> <CNNaffinity>
4.7575063705

> <CNN_VS>
2.9868307114

> <CNNaffinity_variance>
0.4128778875

$$$$
[H]c1c([H])c(S(=O)(=O)N([H])C([H])([H])c2c([H])c3c([H])c(Cl)c([H])c([H])c3n2[H])c([H])c([H])c1F


 24 26  0  0  0  0  0  0  0  0999 V2000
   33.7198  -17.5893   35.1364 N   0  0  0  0  0  0  0  0  0  0  0  0
   32.9544  -17.5795   35.8334 H   0  0  0  0  0  0  0  0  0  0  0  0
   35.1968  -16.9607   35.8204 S   0  0  0  0  0  0  0  0  0  0  0  0
   35.5453  -17.7402   37.0647 O   0  0  0  0  0  0  0  0  0  0  0  0
   36.3455  -17.1600   34.8561 O   0  0  0  0  0  0  0  0  0  0  0  0
   34.4263  -11.2295   37.1253 F   0  0  0  0  0  0  0  0  0  0  0  0
   34.6216  -12.5405   36.8291 C   0  0  0  0  0  0  0  0  0  0  0  0
   33.5593  -13.3535   36.4916 C   0  0  0  0  0  0  0  0  0  0  0  0
   33.7212  -14.6886   36.1852 C   0  0  0  0  0  0  0  0  0  0  0  0
   34.9852  -15.2718   36.2065 C   0  0  0  0  0  0  0  0  0  0  0  0
   36.0415  -14.4517   36.5449 C   0  0  0  0  0  0  0  0  0  0  0  0
   35.8744  -13.1167   36.8507 C   0  0  0  0  0  0  0  0  0  0  0  0
   33.9954  -18.9189   34.6819 C   0  0  0  0  0  0  0  0  0  0  0  0
   32.7987  -19.8013   34.9118 C   0  0  0  0  0  0  0  0  0  0  0  0
   32.7275  -21.1755   34.8498 C   0  0  0  0  0  0  0  0  0  0  0  0
   31.4485  -21.6145   35.1243 C   0  0  0  0  0  0  0  0  0  0  0  0
   30.8245  -22.8408   35.2004 C   0  0  0  0  0  0  0  0  0  0  0  0
   29.4861  -22.9312   35.5089 C   0  0  0  0  0  0  0  0  0  0  0  0
   28.6265  -24.4452   35.6236 Cl  0  0  0  0  0  0  0  0  0  0  0  0
   28.7888  -21.7619   35.7393 C   0  0  0  0  0  0  0  0  0  0  0  0
   29.3883  -20.5268   35.6696 C   0  0  0  0  0  0  0  0  0  0  0  0
   30.7292  -20.4368   35.3605 C   0  0  0  0  0  0  0  0  0  0  0  0
   31.5619  -19.3767   35.2260 N   0  0  0  0  0  0  0  0  0  0  0  0
   31.2783  -18.3622   35.3506 H   0  0  0  0  0  0  0  0  0  0  0  0
  6  7  1  0  0  0
  7  8  2  0  0  0
  8  9  1  0  0  0
  9 10  2  0  0  0
 10 11  1  0  0  0
 11 12  2  0  0  0
 10  3  1  0  0  0
  3  4  2  0  0  0
  3  5  2  0  0  0
  3  1  1  0  0  0
  1 13  1  0  0  0
 13 14  1  0  0  0
 14 15  2  0  0  0
 15 16  1  0  0  0
 16 17  2  0  0  0
 17 18  1  0  0  0
 18 19  1  0  0  0
 18 20  2  0  0  0
 20 21  1  0  0  0
 21 22  2  0  0  0
 22 23  1  0  0  0
 12  7  1  0  0  0
 23 14  1  0  0  0
 22 16  1  0  0  0
  1  2  1  0  0  0
 23 24  1  0  0  0
M  END
> <minimizedAffinity>
-7.04472

> <CNNscore>
0.4957794845

> <CNNaffinity>
4.6297121048

> <CNN_VS>
2.2953162193

> <CNNaffinity_variance>
0.5299329758

$$$$
[H]c1c([H])c(S(=O)(=O)N([H])C([H])([H])c2c([H])c3c([H])c(Cl)c([H])c([H])c3n2[H])c([H])c([H])c1F


 24 26  0  0  0  0  0  0  0  0999 V2000
   31.9192  -18.3256   35.8138 N   0  0  0  0  0  0  0  0  0  0  0  0
   31.0337  -17.7928   35.7514 H   0  0  0  0  0  0  0  0  0  0  0  0
   31.6450  -20.0281   35.5479 S   0  0  0  0  0  0  0  0  0  0  0  0
   30.2955  -20.4119   36.1035 O   0  0  0  0  0  0  0  0  0  0  0  0
   31.5961  -20.3241   34.0649 O   0  0  0  0  0  0  0  0  0  0  0  0
   35.9044  -23.1972   38.1857 F   0  0  0  0  0  0  0  0  0  0  0  0
   34.9348  -22.4555   37.5905 C   0  0  0  0  0  0  0  0  0  0  0  0
   34.0329  -23.0379   36.7238 C   0  0  0  0  0  0  0  0  0  0  0  0
   33.0362  -22.3151   36.1020 C   0  0  0  0  0  0  0  0  0  0  0  0
   32.9038  -20.9485   36.3320 C   0  0  0  0  0  0  0  0  0  0  0  0
   33.8095  -20.3745   37.1997 C   0  0  0  0  0  0  0  0  0  0  0  0
   34.8050  -21.1017   37.8192 C   0  0  0  0  0  0  0  0  0  0  0  0
   32.8620  -17.8891   34.8285 C   0  0  0  0  0  0  0  0  0  0  0  0
   33.7525  -16.8214   35.4037 C   0  0  0  0  0  0  0  0  0  0  0  0
   35.0755  -16.9218   35.7735 C   0  0  0  0  0  0  0  0  0  0  0  0
   35.5427  -15.7182   36.2603 C   0  0  0  0  0  0  0  0  0  0  0  0
   36.7434  -15.2565   36.7547 C   0  0  0  0  0  0  0  0  0  0  0  0
   36.8777  -13.9513   37.1704 C   0  0  0  0  0  0  0  0  0  0  0  0
   38.3632  -13.2935   37.8070 Cl  0  0  0  0  0  0  0  0  0  0  0  0
   35.7789  -13.1203   37.0781 C   0  0  0  0  0  0  0  0  0  0  0  0
   34.5707  -13.5568   36.5886 C   0  0  0  0  0  0  0  0  0  0  0  0
   34.4366  -14.8646   36.1723 C   0  0  0  0  0  0  0  0  0  0  0  0
   33.3884  -15.5521   35.6588 N   0  0  0  0  0  0  0  0  0  0  0  0
   32.4235  -15.1473   35.4844 H   0  0  0  0  0  0  0  0  0  0  0  0
  6  7  1  0  0  0
  7  8  2  0  0  0
  8  9  1  0  0  0
  9 10  2  0  0  0
 10 11  1  0  0  0
 11 12  2  0  0  0
 10  3  1  0  0  0
  3  4  2  0  0  0
  3  5  2  0  0  0
  3  1  1  0  0  0
  1 13  1  0  0  0
 13 14  1  0  0  0
 14 15  2  0  0  0
 15 16  1  0  0  0
 16 17  2  0  0  0
 17 18  1  0  0  0
 18 19  1  0  0  0
 18 20  2  0  0  0
 20 21  1  0  0  0
 21 22  2  0  0  0
 22 23  1  0  0  0
 12  7  1  0  0  0
 23 14  1  0  0  0
 22 16  1  0  0  0
  1  2  1  0  0  0
 23 24  1  0  0  0
M  END
> <minimizedAffinity>
-7.25087

> <CNNscore>
0.4922603965

> <CNNaffinity>
4.8692789078

> <CNN_VS>
2.3969531059

> <CNNaffinity_variance>
0.4216041565

$$$$
[H]c1c([H])c(S(=O)(=O)N([H])C([H])([H])c2c([H])c3c([H])c(Cl)c([H])c([H])c3n2[H])c([H])c([H])c1F


 24 26  0  0  0  0  0  0  0  0999 V2000
   33.2293  -20.0456   37.0486 N   0  0  0  0  0  0  0  0  0  0  0  0
   32.2408  -20.0197   36.7420 H   0  0  0  0  0  0  0  0  0  0  0  0
   33.6648  -21.6347   37.6228 S   0  0  0  0  0  0  0  0  0  0  0  0
   32.6793  -22.0747   38.6775 O   0  0  0  0  0  0  0  0  0  0  0  0
   33.5649  -22.6421   36.4983 O   0  0  0  0  0  0  0  0  0  0  0  0
   39.1261  -21.4693   39.9226 F   0  0  0  0  0  0  0  0  0  0  0  0
   37.8823  -21.5130   39.3791 C   0  0  0  0  0  0  0  0  0  0  0  0
   36.7737  -21.1695   40.1251 C   0  0  0  0  0  0  0  0  0  0  0  0
   35.4965  -21.2024   39.6054 C   0  0  0  0  0  0  0  0  0  0  0  0
   35.2785  -21.5904   38.2863 C   0  0  0  0  0  0  0  0  0  0  0  0
   36.3923  -21.9320   37.5477 C   0  0  0  0  0  0  0  0  0  0  0  0
   37.6680  -21.8976   38.0721 C   0  0  0  0  0  0  0  0  0  0  0  0
   34.1185  -19.7252   35.9729 C   0  0  0  0  0  0  0  0  0  0  0  0
   34.7330  -18.3704   36.1975 C   0  0  0  0  0  0  0  0  0  0  0  0
   35.8263  -18.0470   36.9704 C   0  0  0  0  0  0  0  0  0  0  0  0
   36.0799  -16.6916   36.9208 C   0  0  0  0  0  0  0  0  0  0  0  0
   37.0130  -15.8444   37.4783 C   0  0  0  0  0  0  0  0  0  0  0  0
   36.9834  -14.4938   37.2143 C   0  0  0  0  0  0  0  0  0  0  0  0
   38.1285  -13.3589   37.8814 Cl  0  0  0  0  0  0  0  0  0  0  0  0
   35.9955  -14.0135   36.3777 C   0  0  0  0  0  0  0  0  0  0  0  0
   35.0536  -14.8380   35.8094 C   0  0  0  0  0  0  0  0  0  0  0  0
   35.0836  -16.1910   36.0742 C   0  0  0  0  0  0  0  0  0  0  0  0
   34.2994  -17.2157   35.6616 N   0  0  0  0  0  0  0  0  0  0  0  0
   33.4666  -17.1194   35.0115 H   0  0  0  0  0  0  0  0  0  0  0  0
  6  7  1  0  0  0
  7  8  2  0  0  0
  8  9  1  0  0  0
  9 10  2  0  0  0
 10 11  1  0  0  0
 11 12  2  0  0  0
 10  3  1  0  0  0
  3  4  2  0  0  0
  3  5  2  0  0  0
  3  1  1  0  0  0
  1 13  1  0  0  0
 13 14  1  0  0  0
 14 15  2  0  0  0
 15 16  1  0  0  0
 16 17  2  0  0  0
 17 18  1  0  0  0
 18 19  1  0  0  0
 18 20  2  0  0  0
 20 21  1  0  0  0
 21 22  2  0  0  0
 22 23  1  0  0  0
 12  7  1  0  0  0
 23 14  1  0  0  0
 22 16  1  0  0  0
  1  2  1  0  0  0
 23 24  1  0  0  0
M  END
> <minimizedAffinity>
-5.68757

> <CNNscore>
0.4642230868

> <CNNaffinity>
4.4470086098

> <CNN_VS>
2.0644040108

> <CNNaffinity_variance>
0.4965499341

$$$$
[H]c1c([H])c(S(=O)(=O)N([H])C([H])([H])c2c([H])c3c([H])c(Cl)c([H])c([H])c3n2[H])c([H])c([H])c1F


 24 26  0  0  0  0  0  0  0  0999 V2000
   33.8552  -15.9978   35.7514 N   0  0  0  0  0  0  0  0  0  0  0  0
   33.0354  -16.0217   36.3831 H   0  0  0  0  0  0  0  0  0  0  0  0
   35.1534  -15.0617   36.4463 S   0  0  0  0  0  0  0  0  0  0  0  0
   35.7058  -15.7856   37.6497 O   0  0  0  0  0  0  0  0  0  0  0  0
   36.2948  -14.9390   35.4608 O   0  0  0  0  0  0  0  0  0  0  0  0
   33.1459   -9.7027   37.9937 F   0  0  0  0  0  0  0  0  0  0  0  0
   33.5928  -10.9385   37.6507 C   0  0  0  0  0  0  0  0  0  0  0  0
   34.6418  -11.0894   36.7673 C   0  0  0  0  0  0  0  0  0  0  0  0
   35.1210  -12.3287   36.3970 C   0  0  0  0  0  0  0  0  0  0  0  0
   34.5520  -13.4906   36.9114 C   0  0  0  0  0  0  0  0  0  0  0  0
   33.5040  -13.3304   37.7937 C   0  0  0  0  0  0  0  0  0  0  0  0
   33.0281  -12.0885   38.1611 C   0  0  0  0  0  0  0  0  0  0  0  0
   34.3650  -17.3134   35.5070 C   0  0  0  0  0  0  0  0  0  0  0  0
   33.2522  -18.3224   35.5939 C   0  0  0  0  0  0  0  0  0  0  0  0
   33.2703  -19.5629   36.1922 C   0  0  0  0  0  0  0  0  0  0  0  0
   32.0490  -20.1910   36.0588 C   0  0  0  0  0  0  0  0  0  0  0  0
   31.5176  -21.4015   36.4480 C   0  0  0  0  0  0  0  0  0  0  0  0
   30.2161  -21.7291   36.1429 C   0  0  0  0  0  0  0  0  0  0  0  0
   29.4729  -23.2400   36.6003 Cl  0  0  0  0  0  0  0  0  0  0  0  0
   29.4603  -20.8133   35.4381 C   0  0  0  0  0  0  0  0  0  0  0  0
   29.9672  -19.5995   35.0387 C   0  0  0  0  0  0  0  0  0  0  0  0
   31.2712  -19.2717   35.3446 C   0  0  0  0  0  0  0  0  0  0  0  0
   32.0170  -18.1712   35.0839 N   0  0  0  0  0  0  0  0  0  0  0  0
   31.6753  -17.3173   34.5554 H   0  0  0  0  0  0  0  0  0  0  0  0
  6  7  1  0  0  0
  7  8  2  0  0  0
  8  9  1  0  0  0
  9 10  2  0  0  0
 10 11  1  0  0  0
 11 12  2  0  0  0
 10  3  1  0  0  0
  3  4  2  0  0  0
  3  5  2  0  0  0
  3  1  1  0  0  0
  1 13  1  0  0  0
 13 14  1  0  0  0
 14 15  2  0  0  0
 15 16  1  0  0  0
 16 17  2  0  0  0
 17 18  1  0  0  0
 18 19  1  0  0  0
 18 20  2  0  0  0
 20 21  1  0  0  0
 21 22  2  0  0  0
 22 23  1  0  0  0
 12  7  1  0  0  0
 23 14  1  0  0  0
 22 16  1  0  0  0
  1  2  1  0  0  0
 23 24  1  0  0  0
M  END
> <minimizedAffinity>
-7.14564

> <CNNscore>
0.4615409970

> <CNNaffinity>
4.6547327042

> <CNN_VS>
2.1483500004

> <CNNaffinity_variance>
0.5494633317

$$$$
[H]c1c([H])c(S(=O)(=O)N([H])C([H])([H])c2c([H])c3c([H])c(Cl)c([H])c([H])c3n2[H])c([H])c([H])c1F


 24 26  0  0  0  0  0  0  0  0999 V2000
   33.2687  -14.3030   36.2995 N   0  0  0  0  0  0  0  0  0  0  0  0
   32.4965  -14.9116   36.6234 H   0  0  0  0  0  0  0  0  0  0  0  0
   33.9519  -13.3994   37.6266 S   0  0  0  0  0  0  0  0  0  0  0  0
   32.9752  -13.3811   38.7768 O   0  0  0  0  0  0  0  0  0  0  0  0
   35.2004  -14.0847   38.1375 O   0  0  0  0  0  0  0  0  0  0  0  0
   35.1634   -7.8857   35.8170 F   0  0  0  0  0  0  0  0  0  0  0  0
   34.8721   -9.1420   36.2429 C   0  0  0  0  0  0  0  0  0  0  0  0
   35.5797  -10.2287   35.7717 C   0  0  0  0  0  0  0  0  0  0  0  0
   35.3107  -11.5177   36.1825 C   0  0  0  0  0  0  0  0  0  0  0  0
   34.2976  -11.7706   37.1032 C   0  0  0  0  0  0  0  0  0  0  0  0
   33.5954  -10.6785   37.5691 C   0  0  0  0  0  0  0  0  0  0  0  0
   33.8682   -9.3910   37.1551 C   0  0  0  0  0  0  0  0  0  0  0  0
   34.3293  -15.0694   35.7181 C   0  0  0  0  0  0  0  0  0  0  0  0
   33.9068  -16.5059   35.5701 C   0  0  0  0  0  0  0  0  0  0  0  0
   34.3533  -17.6031   36.2727 C   0  0  0  0  0  0  0  0  0  0  0  0
   33.7220  -18.7524   35.8432 C   0  0  0  0  0  0  0  0  0  0  0  0
   33.7751  -20.0880   36.1785 C   0  0  0  0  0  0  0  0  0  0  0  0
   32.9827  -21.0081   35.5304 C   0  0  0  0  0  0  0  0  0  0  0  0
   32.9933  -22.7137   35.8979 Cl  0  0  0  0  0  0  0  0  0  0  0  0
   32.1356  -20.5563   34.5380 C   0  0  0  0  0  0  0  0  0  0  0  0
   32.0642  -19.2295   34.1852 C   0  0  0  0  0  0  0  0  0  0  0  0
   32.8583  -18.3081   34.8348 C   0  0  0  0  0  0  0  0  0  0  0  0
   32.9931  -16.9671   34.6976 N   0  0  0  0  0  0  0  0  0  0  0  0
   32.4562  -16.3706   34.0039 H   0  0  0  0  0  0  0  0  0  0  0  0
  6  7  1  0  0  0
  7  8  2  0  0  0
  8  9  1  0  0  0
  9 10  2  0  0  0
 10 11  1  0  0  0
 11 12  2  0  0  0
 10  3  1  0  0  0
  3  4  2  0  0  0
  3  5  2  0  0  0
  3  1  1  0  0  0
  1 13  1  0  0  0
 13 14  1  0  0  0
 14 15  2  0  0  0
 15 16  1  0  0  0
 16 17  2  0  0  0
 17 18  1  0  0  0
 18 19  1  0  0  0
 18 20  2  0  0  0
 20 21  1  0  0  0
 21 22  2  0  0  0
 22 23  1  0  0  0
 12  7  1  0  0  0
 23 14  1  0  0  0
 22 16  1  0  0  0
  1  2  1  0  0  0
 23 24  1  0  0  0
M  END
> <minimizedAffinity>
-7.13003

> <CNNscore>
0.4289105237

> <CNNaffinity>
5.1073327065

> <CNN_VS>
2.1905887127

> <CNNaffinity_variance>
0.2408285439

$$$$
[H]c1c([H])c(S(=O)(=O)N([H])C([H])([H])c2c([H])c3c([H])c(Cl)c([H])c([H])c3n2[H])c([H])c([H])c1F


 24 26  0  0  0  0  0  0  0  0999 V2000
   37.5145  -17.7472   36.3486 N   0  0  0  0  0  0  0  0  0  0  0  0
   37.2863  -17.2786   37.2432 H   0  0  0  0  0  0  0  0  0  0  0  0
   36.9358  -19.3933   36.3393 S   0  0  0  0  0  0  0  0  0  0  0  0
   37.8432  -20.2394   35.4802 O   0  0  0  0  0  0  0  0  0  0  0  0
   37.0005  -19.9778   37.7333 O   0  0  0  0  0  0  0  0  0  0  0  0
   31.4195  -19.5272   34.1724 F   0  0  0  0  0  0  0  0  0  0  0  0
   32.6762  -19.4965   34.6865 C   0  0  0  0  0  0  0  0  0  0  0  0
   33.7778  -19.4687   33.8564 C   0  0  0  0  0  0  0  0  0  0  0  0
   35.0676  -19.4373   34.3441 C   0  0  0  0  0  0  0  0  0  0  0  0
   35.3061  -19.4325   35.7157 C   0  0  0  0  0  0  0  0  0  0  0  0
   34.1992  -19.4603   36.5382 C   0  0  0  0  0  0  0  0  0  0  0  0
   32.9108  -19.4918   36.0455 C   0  0  0  0  0  0  0  0  0  0  0  0
   36.9066  -17.0779   35.2383 C   0  0  0  0  0  0  0  0  0  0  0  0
   36.1165  -15.8917   35.7204 C   0  0  0  0  0  0  0  0  0  0  0  0
   34.7980  -15.8488   36.1165 C   0  0  0  0  0  0  0  0  0  0  0  0
   34.4386  -14.5706   36.4915 C   0  0  0  0  0  0  0  0  0  0  0  0
   33.2894  -13.9681   36.9559 C   0  0  0  0  0  0  0  0  0  0  0  0
   33.2684  -12.6227   37.2459 C   0  0  0  0  0  0  0  0  0  0  0  0
   31.8541  -11.7890   37.8368 Cl  0  0  0  0  0  0  0  0  0  0  0  0
   34.4275  -11.8962   37.0588 C   0  0  0  0  0  0  0  0  0  0  0  0
   35.5863  -12.4739   36.5968 C   0  0  0  0  0  0  0  0  0  0  0  0
   35.6070  -13.8218   36.3065 C   0  0  0  0  0  0  0  0  0  0  0  0
   36.5859  -14.6378   35.8470 N   0  0  0  0  0  0  0  0  0  0  0  0
   37.5759  -14.3311   35.6211 H   0  0  0  0  0  0  0  0  0  0  0  0
  6  7  1  0  0  0
  7  8  2  0  0  0
  8  9  1  0  0  0
  9 10  2  0  0  0
 10 11  1  0  0  0
 11 12  2  0  0  0
 10  3  1  0  0  0
  3  4  2  0  0  0
  3  5  2  0  0  0
  3  1  1  0  0  0
  1 13  1  0  0  0
 13 14  1  0  0  0
 14 15  2  0  0  0
 15 16  1  0  0  0
 16 17  2  0  0  0
 17 18  1  0  0  0
 18 19  1  0  0  0
 18 20  2  0  0  0
 20 21  1  0  0  0
 21 22  2  0  0  0
 22 23  1  0  0  0
 12  7  1  0  0  0
 23 14  1  0  0  0
 22 16  1  0  0  0
  1  2  1  0  0  0
 23 24  1  0  0  0
M  END
> <minimizedAffinity>
-6.84151

> <CNNscore>
0.3712132275

> <CNNaffinity>
4.8808565140

> <CNN_VS>
1.8118385077

> <CNNaffinity_variance>
0.7155186534

$$$$
[H]c1c(OC([H])([H])[H])c(N([H])C(=O)C2([H])C([H])([H])C([H])([H])N(C([H])([H])[H])C([H])([H])C2([H])[H])c([H])n2nc(C3([H])C([H])([H])C([H])([H])C4(C(=O)N([H])C(=O)N4[H])C([H])([H])C3([H])[H])c(C#N)c12


 38 42  0  0  0  0  0  0  0  0999 V2000
   33.1331  -23.3991   39.4622 C   0  0  0  0  0  0  0  0  0  0  0  0
   34.2671  -23.7369   40.1329 C   0  0  0  0  0  0  0  0  0  0  0  0
   35.4525  -23.2222   39.7113 C   0  0  0  0  0  0  0  0  0  0  0  0
   36.7721  -23.3414   40.1368 C   0  0  0  0  0  0  0  0  0  0  0  0
   37.5587  -22.5831   39.3185 C   0  0  0  0  0  0  0  0  0  0  0  0
   36.7334  -22.0189   38.4187 N   0  0  0  0  0  0  0  0  0  0  0  0
   35.4932  -22.3988   38.6544 N   0  0  0  0  0  0  0  0  0  0  0  0
   34.3467  -22.0611   37.9812 C   0  0  0  0  0  0  0  0  0  0  0  0
   33.1174  -22.5373   38.3438 C   0  0  0  0  0  0  0  0  0  0  0  0
   38.9907  -22.3799   39.3545 C   0  0  0  0  0  0  0  0  0  0  0  0
   39.6904  -22.6247   38.0547 C   0  0  0  0  0  0  0  0  0  0  0  0
   41.0639  -22.1041   37.9378 C   0  0  0  0  0  0  0  0  0  0  0  0
   41.4798  -21.0009   38.8184 C   0  0  0  0  0  0  0  0  0  0  0  0
   40.7142  -20.8629   40.1087 C   0  0  0  0  0  0  0  0  0  0  0  0
   39.2475  -20.9375   39.7460 C   0  0  0  0  0  0  0  0  0  0  0  0
   42.8891  -21.1374   39.1839 N   0  0  0  0  0  0  0  0  0  0  0  0
   43.5151  -19.8768   39.2655 C   0  0  0  0  0  0  0  0  0  0  0  0
   44.6193  -19.6650   39.8271 O   0  0  0  0  0  0  0  0  0  0  0  0
   42.6476  -18.9649   38.6001 N   0  0  0  0  0  0  0  0  0  0  0  0
   41.5090  -19.6706   38.1222 C   0  0  0  0  0  0  0  0  0  0  0  0
   40.7167  -19.1977   37.2691 O   0  0  0  0  0  0  0  0  0  0  0  0
   43.3838  -22.0432   39.3645 H   0  0  0  0  0  0  0  0  0  0  0  0
   42.8806  -17.9508   38.5173 H   0  0  0  0  0  0  0  0  0  0  0  0
   31.8795  -22.2542   37.7240 N   0  0  0  0  0  0  0  0  0  0  0  0
   31.3740  -22.9133   36.6007 C   0  0  0  0  0  0  0  0  0  0  0  0
   31.9377  -23.8300   35.9980 O   0  0  0  0  0  0  0  0  0  0  0  0
   31.2650  -21.4683   38.1399 H   0  0  0  0  0  0  0  0  0  0  0  0
   30.0291  -22.5232   36.0204 C   0  0  0  0  0  0  0  0  0  0  0  0
   29.9064  -21.0226   35.9589 C   0  0  0  0  0  0  0  0  0  0  0  0
   28.5678  -20.6335   36.5448 C   0  0  0  0  0  0  0  0  0  0  0  0
   28.4714  -21.0750   37.9317 N   0  0  0  0  0  0  0  0  0  0  0  0
   27.3241  -20.5337   38.5953 C   0  0  0  0  0  0  0  0  0  0  0  0
   28.5766  -22.4976   38.0442 C   0  0  0  0  0  0  0  0  0  0  0  0
   28.8907  -23.1568   36.7384 C   0  0  0  0  0  0  0  0  0  0  0  0
   31.4189  -23.6759   41.1791 C   0  0  0  0  0  0  0  0  0  0  0  0
   31.9167  -23.9138   39.8777 O   0  0  0  0  0  0  0  0  0  0  0  0
   37.1884  -24.1363   41.2406 C   0  0  0  0  0  0  0  0  0  0  0  0
   37.5370  -24.7676   42.1483 N   0  0  0  0  0  0  0  0  0  0  0  0
 35 36  1  0  0  0
 36  1  1  0  0  0
  1  2  2  0  0  0
  2  3  1  0  0  0
  3  4  2  0  0  0
  4 37  1  0  0  0
 37 38  3  0  0  0
  4  5  1  0  0  0
  5  6  2  0  0  0
  6  7  1  0  0  0
  7  8  1  0  0  0
  8  9  2  0  0  0
  9 24  1  0  0  0
 24 25  1  0  0  0
 25 26  2  0  0  0
 25 28  1  0  0  0
 28 29  1  0  0  0
 29 30  1  0  0  0
 30 31  1  0  0  0
 31 32  1  0  0  0
 31 33  1  0  0  0
 33 34  1  0  0  0
  5 10  1  0  0  0
 10 11  1  0  0  0
 11 12  1  0  0  0
 12 13  1  0  0  0
 13 14  1  0  0  0
 14 15  1  0  0  0
 13 16  1  0  0  0
 16 17  1  0  0  0
 17 18  2  0  0  0
 17 19  1  0  0  0
 19 20  1  0  0  0
 20 21  2  0  0  0
  9  1  1  0  0  0
 34 28  1  0  0  0
 15 10  1  0  0  0
  7  3  1  0  0  0
 20 13  1  0  0  0
 24 27  1  0  0  0
 16 22  1  0  0  0
 19 23  1  0  0  0
M  END
> <minimizedAffinity>
-3.97360

> <CNNscore>
0.5594577193

> <CNNaffinity>
5.5128765106

> <CNN_VS>
3.0842213631

> <CNNaffinity_variance>
0.4505658746

$$$$
[H]c1c(OC([H])([H])[H])c(N([H])C(=O)C2([H])C([H])([H])C([H])([H])N(C([H])([H])[H])C([H])([H])C2([H])[H])c([H])n2nc(C3([H])C([H])([H])C([H])([H])C4(C(=O)N([H])C(=O)N4[H])C([H])([H])C3([H])[H])c(C#N)c12


 38 42  0  0  0  0  0  0  0  0999 V2000
   34.9755  -23.3308   41.2607 C   0  0  0  0  0  0  0  0  0  0  0  0
   35.7715  -23.8228   40.2736 C   0  0  0  0  0  0  0  0  0  0  0  0
   36.6817  -22.9950   39.6958 C   0  0  0  0  0  0  0  0  0  0  0  0
   37.6324  -23.1434   38.6904 C   0  0  0  0  0  0  0  0  0  0  0  0
   38.2743  -21.9501   38.5251 C   0  0  0  0  0  0  0  0  0  0  0  0
   37.7239  -21.0998   39.4100 N   0  0  0  0  0  0  0  0  0  0  0  0
   36.7856  -21.7204   40.0975 N   0  0  0  0  0  0  0  0  0  0  0  0
   35.9806  -21.2289   41.0935 C   0  0  0  0  0  0  0  0  0  0  0  0
   35.0417  -21.9982   41.7227 C   0  0  0  0  0  0  0  0  0  0  0  0
   39.3379  -21.6008   37.6086 C   0  0  0  0  0  0  0  0  0  0  0  0
   39.1255  -22.0582   36.1998 C   0  0  0  0  0  0  0  0  0  0  0  0
   39.9809  -21.4412   35.1709 C   0  0  0  0  0  0  0  0  0  0  0  0
   40.5935  -20.1330   35.4513 C   0  0  0  0  0  0  0  0  0  0  0  0
   40.7737  -19.7879   36.9069 C   0  0  0  0  0  0  0  0  0  0  0  0
   39.4552  -20.0890   37.5844 C   0  0  0  0  0  0  0  0  0  0  0  0
   41.9168  -20.0416   34.8357 N   0  0  0  0  0  0  0  0  0  0  0  0
   42.1641  -18.7383   34.3586 C   0  0  0  0  0  0  0  0  0  0  0  0
   43.2994  -18.2961   34.0503 O   0  0  0  0  0  0  0  0  0  0  0  0
   40.8972  -18.0903   34.3147 N   0  0  0  0  0  0  0  0  0  0  0  0
   39.8958  -18.9960   34.7617 C   0  0  0  0  0  0  0  0  0  0  0  0
   38.6675  -18.8080   34.5746 O   0  0  0  0  0  0  0  0  0  0  0  0
   42.6023  -20.8296   34.7516 H   0  0  0  0  0  0  0  0  0  0  0  0
   40.7998  -17.1022   33.9927 H   0  0  0  0  0  0  0  0  0  0  0  0
   34.1658  -21.5950   42.7556 N   0  0  0  0  0  0  0  0  0  0  0  0
   32.7860  -21.4242   42.6181 C   0  0  0  0  0  0  0  0  0  0  0  0
   32.1456  -21.6014   41.5789 O   0  0  0  0  0  0  0  0  0  0  0  0
   34.5814  -21.3991   43.7340 H   0  0  0  0  0  0  0  0  0  0  0  0
   31.9435  -20.9870   43.7999 C   0  0  0  0  0  0  0  0  0  0  0  0
   30.4945  -21.3203   43.5554 C   0  0  0  0  0  0  0  0  0  0  0  0
   29.6672  -20.0960   43.8768 C   0  0  0  0  0  0  0  0  0  0  0  0
   30.0612  -18.9779   43.0270 N   0  0  0  0  0  0  0  0  0  0  0  0
   29.1592  -17.8712   43.1330 C   0  0  0  0  0  0  0  0  0  0  0  0
   31.4317  -18.6174   43.2260 C   0  0  0  0  0  0  0  0  0  0  0  0
   32.1456  -19.5549   44.1479 C   0  0  0  0  0  0  0  0  0  0  0  0
   34.4215  -25.1282   42.8181 C   0  0  0  0  0  0  0  0  0  0  0  0
   34.0427  -24.1598   41.8606 O   0  0  0  0  0  0  0  0  0  0  0  0
   37.8597  -24.3522   37.9759 C   0  0  0  0  0  0  0  0  0  0  0  0
   38.0474  -25.3473   37.4114 N   0  0  0  0  0  0  0  0  0  0  0  0
 35 36  1  0  0  0
 36  1  1  0  0  0
  1  2  2  0  0  0
  2  3  1  0  0  0
  3  4  2  0  0  0
  4 37  1  0  0  0
 37 38  3  0  0  0
  4  5  1  0  0  0
  5  6  2  0  0  0
  6  7  1  0  0  0
  7  8  1  0  0  0
  8  9  2  0  0  0
  9 24  1  0  0  0
 24 25  1  0  0  0
 25 26  2  0  0  0
 25 28  1  0  0  0
 28 29  1  0  0  0
 29 30  1  0  0  0
 30 31  1  0  0  0
 31 32  1  0  0  0
 31 33  1  0  0  0
 33 34  1  0  0  0
  5 10  1  0  0  0
 10 11  1  0  0  0
 11 12  1  0  0  0
 12 13  1  0  0  0
 13 14  1  0  0  0
 14 15  1  0  0  0
 13 16  1  0  0  0
 16 17  1  0  0  0
 17 18  2  0  0  0
 17 19  1  0  0  0
 19 20  1  0  0  0
 20 21  2  0  0  0
  9  1  1  0  0  0
 34 28  1  0  0  0
 15 10  1  0  0  0
  7  3  1  0  0  0
 20 13  1  0  0  0
 24 27  1  0  0  0
 16 22  1  0  0  0
 19 23  1  0  0  0
M  END
> <minimizedAffinity>
-4.02204

> <CNNscore>
0.5264769793

> <CNNaffinity>
5.6157517433

> <CNN_VS>
2.9565639496

> <CNNaffinity_variance>
0.4534505308

$$$$
[H]c1c(OC([H])([H])[H])c(N([H])C(=O)C2([H])C([H])([H])C([H])([H])N(C([H])([H])[H])C([H])([H])C2([H])[H])c([H])n2nc(C3([H])C([H])([H])C([H])([H])C4(C(=O)N([H])C(=O)N4[H])C([H])([H])C3([H])[H])c(C#N)c12


 38 42  0  0  0  0  0  0  0  0999 V2000
   35.7377  -23.3967   38.7406 C   0  0  0  0  0  0  0  0  0  0  0  0
   37.0120  -23.2144   39.1799 C   0  0  0  0  0  0  0  0  0  0  0  0
   37.8060  -22.3245   38.5276 C   0  0  0  0  0  0  0  0  0  0  0  0
   39.1190  -21.8916   38.6875 C   0  0  0  0  0  0  0  0  0  0  0  0
   39.3875  -20.9652   37.7216 C   0  0  0  0  0  0  0  0  0  0  0  0
   38.2629  -20.8413   36.9945 N   0  0  0  0  0  0  0  0  0  0  0  0
   37.3337  -21.6446   37.4735 N   0  0  0  0  0  0  0  0  0  0  0  0
   36.0478  -21.8320   37.0343 C   0  0  0  0  0  0  0  0  0  0  0  0
   35.1887  -22.7085   37.6367 C   0  0  0  0  0  0  0  0  0  0  0  0
   40.6069  -20.2271   37.4735 C   0  0  0  0  0  0  0  0  0  0  0  0
   41.5648  -20.8967   36.5392 C   0  0  0  0  0  0  0  0  0  0  0  0
   42.6383  -20.0553   35.9818 C   0  0  0  0  0  0  0  0  0  0  0  0
   42.4457  -18.5970   35.9417 C   0  0  0  0  0  0  0  0  0  0  0  0
   41.4698  -18.0331   36.9417 C   0  0  0  0  0  0  0  0  0  0  0  0
   40.2281  -18.8932   36.8594 C   0  0  0  0  0  0  0  0  0  0  0  0
   43.7142  -17.9039   36.1627 N   0  0  0  0  0  0  0  0  0  0  0  0
   43.7943  -16.7335   35.3808 C   0  0  0  0  0  0  0  0  0  0  0  0
   44.6195  -15.8049   35.5712 O   0  0  0  0  0  0  0  0  0  0  0  0
   42.7793  -16.8542   34.3899 N   0  0  0  0  0  0  0  0  0  0  0  0
   42.0940  -18.0868   34.5737 C   0  0  0  0  0  0  0  0  0  0  0  0
   41.3458  -18.5931   33.7001 O   0  0  0  0  0  0  0  0  0  0  0  0
   44.4734  -18.2208   36.8115 H   0  0  0  0  0  0  0  0  0  0  0  0
   42.6237  -16.1109   33.6737 H   0  0  0  0  0  0  0  0  0  0  0  0
   33.8510  -22.9764   37.2685 N   0  0  0  0  0  0  0  0  0  0  0  0
   32.7744  -22.1076   37.4640 C   0  0  0  0  0  0  0  0  0  0  0  0
   32.8444  -20.9911   37.9834 O   0  0  0  0  0  0  0  0  0  0  0  0
   33.6277  -23.9237   36.7986 H   0  0  0  0  0  0  0  0  0  0  0  0
   31.3779  -22.5030   37.0269 C   0  0  0  0  0  0  0  0  0  0  0  0
   31.2205  -24.0004   37.0856 C   0  0  0  0  0  0  0  0  0  0  0  0
   30.6041  -24.4621   35.7843 C   0  0  0  0  0  0  0  0  0  0  0  0
   31.4617  -24.1049   34.6597 N   0  0  0  0  0  0  0  0  0  0  0  0
   31.0374  -24.7174   33.4373 C   0  0  0  0  0  0  0  0  0  0  0  0
   31.6387  -22.6887   34.5564 C   0  0  0  0  0  0  0  0  0  0  0  0
   31.0158  -21.9459   35.6960 C   0  0  0  0  0  0  0  0  0  0  0  0
   34.5151  -24.0999   40.7341 C   0  0  0  0  0  0  0  0  0  0  0  0
   34.9147  -24.2991   39.3929 O   0  0  0  0  0  0  0  0  0  0  0  0
   40.0008  -22.3663   39.6976 C   0  0  0  0  0  0  0  0  0  0  0  0
   40.7229  -22.7338   40.5269 N   0  0  0  0  0  0  0  0  0  0  0  0
 35 36  1  0  0  0
 36  1  1  0  0  0
  1  2  2  0  0  0
  2  3  1  0  0  0
  3  4  2  0  0  0
  4 37  1  0  0  0
 37 38  3  0  0  0
  4  5  1  0  0  0
  5  6  2  0  0  0
  6  7  1  0  0  0
  7  8  1  0  0  0
  8  9  2  0  0  0
  9 24  1  0  0  0
 24 25  1  0  0  0
 25 26  2  0  0  0
 25 28  1  0  0  0
 28 29  1  0  0  0
 29 30  1  0  0  0
 30 31  1  0  0  0
 31 32  1  0  0  0
 31 33  1  0  0  0
 33 34  1  0  0  0
  5 10  1  0  0  0
 10 11  1  0  0  0
 11 12  1  0  0  0
 12 13  1  0  0  0
 13 14  1  0  0  0
 14 15  1  0  0  0
 13 16  1  0  0  0
 16 17  1  0  0  0
 17 18  2  0  0  0
 17 19  1  0  0  0
 19 20  1  0  0  0
 20 21  2  0  0  0
  9  1  1  0  0  0
 34 28  1  0  0  0
 15 10  1  0  0  0
  7  3  1  0  0  0
 20 13  1  0  0  0
 24 27  1  0  0  0
 16 22  1  0  0  0
 19 23  1  0  0  0
M  END
> <minimizedAffinity>
-4.80965

> <CNNscore>
0.4702502191

> <CNNaffinity>
5.8389005661

> <CNN_VS>
2.7457442284

> <CNNaffinity_variance>
0.2580545545

$$$$
[H]c1c(OC([H])([H])[H])c(N([H])C(=O)C2([H])C([H])([H])C([H])([H])N(C([H])([H])[H])C([H])([H])C2([H])[H])c([H])n2nc(C3([H])C([H])([H])C([H])([H])C4(C(=O)N([H])C(=O)N4[H])C([H])([H])C3([H])[H])c(C#N)c12


 38 42  0  0  0  0  0  0  0  0999 V2000
   35.3278  -22.2003   37.8813 C   0  0  0  0  0  0  0  0  0  0  0  0
   34.6549  -21.3849   37.0254 C   0  0  0  0  0  0  0  0  0  0  0  0
   35.0320  -20.0822   36.9329 C   0  0  0  0  0  0  0  0  0  0  0  0
   34.5902  -18.9911   36.1907 C   0  0  0  0  0  0  0  0  0  0  0  0
   35.3592  -17.9106   36.5139 C   0  0  0  0  0  0  0  0  0  0  0  0
   36.2452  -18.3388   37.4309 N   0  0  0  0  0  0  0  0  0  0  0  0
   36.0482  -19.6193   37.6745 N   0  0  0  0  0  0  0  0  0  0  0  0
   36.7236  -20.4457   38.5362 C   0  0  0  0  0  0  0  0  0  0  0  0
   36.4043  -21.7666   38.6855 C   0  0  0  0  0  0  0  0  0  0  0  0
   35.2928  -16.5554   36.0118 C   0  0  0  0  0  0  0  0  0  0  0  0
   33.9072  -16.0442   35.7712 C   0  0  0  0  0  0  0  0  0  0  0  0
   33.7626  -14.5876   35.6024 C   0  0  0  0  0  0  0  0  0  0  0  0
   34.8037  -13.7048   36.1519 C   0  0  0  0  0  0  0  0  0  0  0  0
   36.1650  -14.3246   36.3340 C   0  0  0  0  0  0  0  0  0  0  0  0
   35.9428  -15.6458   37.0365 C   0  0  0  0  0  0  0  0  0  0  0  0
   34.9912  -12.5347   35.2951 N   0  0  0  0  0  0  0  0  0  0  0  0
   35.2654  -11.3842   36.0625 C   0  0  0  0  0  0  0  0  0  0  0  0
   35.7454  -10.3182   35.6013 O   0  0  0  0  0  0  0  0  0  0  0  0
   34.8901  -11.7054   37.3976 N   0  0  0  0  0  0  0  0  0  0  0  0
   34.3943  -13.0380   37.4337 C   0  0  0  0  0  0  0  0  0  0  0  0
   33.7391  -13.5006   38.4011 O   0  0  0  0  0  0  0  0  0  0  0  0
   34.9329  -12.5334   34.2489 H   0  0  0  0  0  0  0  0  0  0  0  0
   34.9932  -11.0164   38.1749 H   0  0  0  0  0  0  0  0  0  0  0  0
   37.0318  -22.7016   39.5391 N   0  0  0  0  0  0  0  0  0  0  0  0
   38.1941  -23.4143   39.2341 C   0  0  0  0  0  0  0  0  0  0  0  0
   38.8296  -23.3250   38.1807 O   0  0  0  0  0  0  0  0  0  0  0  0
   36.5891  -22.8914   40.5067 H   0  0  0  0  0  0  0  0  0  0  0  0
   38.7792  -24.3947   40.2312 C   0  0  0  0  0  0  0  0  0  0  0  0
   37.7808  -24.6826   41.3224 C   0  0  0  0  0  0  0  0  0  0  0  0
   38.4854  -24.5521   42.6540 C   0  0  0  0  0  0  0  0  0  0  0  0
   39.0147  -23.2030   42.8199 N   0  0  0  0  0  0  0  0  0  0  0  0
   39.4865  -22.9647   44.1504 C   0  0  0  0  0  0  0  0  0  0  0  0
   39.9746  -22.8817   41.8085 C   0  0  0  0  0  0  0  0  0  0  0  0
   40.0935  -23.9495   40.7673 C   0  0  0  0  0  0  0  0  0  0  0  0
   34.1354  -24.1492   37.0193 C   0  0  0  0  0  0  0  0  0  0  0  0
   34.9575  -23.5302   37.9883 O   0  0  0  0  0  0  0  0  0  0  0  0
   33.5103  -19.0366   35.2660 C   0  0  0  0  0  0  0  0  0  0  0  0
   32.6255  -19.0926   34.5190 N   0  0  0  0  0  0  0  0  0  0  0  0
 35 36  1  0  0  0
 36  1  1  0  0  0
  1  2  2  0  0  0
  2  3  1  0  0  0
  3  4  2  0  0  0
  4 37  1  0  0  0
 37 38  3  0  0  0
  4  5  1  0  0  0
  5  6  2  0  0  0
  6  7  1  0  0  0
  7  8  1  0  0  0
  8  9  2  0  0  0
  9 24  1  0  0  0
 24 25  1  0  0  0
 25 26  2  0  0  0
 25 28  1  0  0  0
 28 29  1  0  0  0
 29 30  1  0  0  0
 30 31  1  0  0  0
 31 32  1  0  0  0
 31 33  1  0  0  0
 33 34  1  0  0  0
  5 10  1  0  0  0
 10 11  1  0  0  0
 11 12  1  0  0  0
 12 13  1  0  0  0
 13 14  1  0  0  0
 14 15  1  0  0  0
 13 16  1  0  0  0
 16 17  1  0  0  0
 17 18  2  0  0  0
 17 19  1  0  0  0
 19 20  1  0  0  0
 20 21  2  0  0  0
  9  1  1  0  0  0
 34 28  1  0  0  0
 15 10  1  0  0  0
  7  3  1  0  0  0
 20 13  1  0  0  0
 24 27  1  0  0  0
 16 22  1  0  0  0
 19 23  1  0  0  0
M  END
> <minimizedAffinity>
-5.55326

> <CNNscore>
0.4429253340

> <CNNaffinity>
5.9581899643

> <CNN_VS>
2.6390333176

> <CNNaffinity_variance>
0.0316404887

$$$$
[H]c1c(OC([H])([H])[H])c(N([H])C(=O)C2([H])C([H])([H])C([H])([H])N(C([H])([H])[H])C([H])([H])C2([H])[H])c([H])n2nc(C3([H])C([H])([H])C([H])([H])C4(C(=O)N([H])C(=O)N4[H])C([H])([H])C3([H])[H])c(C#N)c12


 38 42  0  0  0  0  0  0  0  0999 V2000
   38.1716  -22.7737   37.2615 C   0  0  0  0  0  0  0  0  0  0  0  0
   38.5321  -21.7572   36.4327 C   0  0  0  0  0  0  0  0  0  0  0  0
   38.0050  -20.5226   36.6467 C   0  0  0  0  0  0  0  0  0  0  0  0
   38.1387  -19.2855   36.0234 C   0  0  0  0  0  0  0  0  0  0  0  0
   37.3554  -18.3836   36.6841 C   0  0  0  0  0  0  0  0  0  0  0  0
   36.7617  -19.0602   37.6834 N   0  0  0  0  0  0  0  0  0  0  0  0
   37.1477  -20.3205   37.6571 N   0  0  0  0  0  0  0  0  0  0  0  0
   36.7873  -21.3489   38.4902 C   0  0  0  0  0  0  0  0  0  0  0  0
   37.2737  -22.6178   38.3400 C   0  0  0  0  0  0  0  0  0  0  0  0
   37.1583  -16.9748   36.4206 C   0  0  0  0  0  0  0  0  0  0  0  0
   36.5100  -16.6684   35.1073 C   0  0  0  0  0  0  0  0  0  0  0  0
   35.9722  -15.3068   34.9399 C   0  0  0  0  0  0  0  0  0  0  0  0
   35.6416  -14.5240   36.1413 C   0  0  0  0  0  0  0  0  0  0  0  0
   36.3703  -14.9116   37.4019 C   0  0  0  0  0  0  0  0  0  0  0  0
   36.2648  -16.4167   37.5114 C   0  0  0  0  0  0  0  0  0  0  0  0
   35.9161  -13.1044   35.9224 N   0  0  0  0  0  0  0  0  0  0  0  0
   34.9558  -12.2981   36.5667 C   0  0  0  0  0  0  0  0  0  0  0  0
   35.0933  -11.0694   36.7925 O   0  0  0  0  0  0  0  0  0  0  0  0
   33.8658  -13.1596   36.8775 N   0  0  0  0  0  0  0  0  0  0  0  0
   34.1676  -14.4735   36.4241 C   0  0  0  0  0  0  0  0  0  0  0  0
   33.3004  -15.3755   36.3078 O   0  0  0  0  0  0  0  0  0  0  0  0
   36.7150  -12.7203   35.3639 H   0  0  0  0  0  0  0  0  0  0  0  0
   33.0123  -12.8071   37.3641 H   0  0  0  0  0  0  0  0  0  0  0  0
   36.9710  -23.7442   39.1377 N   0  0  0  0  0  0  0  0  0  0  0  0
   35.8115  -24.5163   39.0307 C   0  0  0  0  0  0  0  0  0  0  0  0
   34.8961  -24.3207   38.2275 O   0  0  0  0  0  0  0  0  0  0  0  0
   37.6822  -24.0434   39.8945 H   0  0  0  0  0  0  0  0  0  0  0  0
   35.5933  -25.7067   39.9433 C   0  0  0  0  0  0  0  0  0  0  0  0
   34.2198  -25.6427   40.5598 C   0  0  0  0  0  0  0  0  0  0  0  0
   34.3574  -25.8824   42.0465 C   0  0  0  0  0  0  0  0  0  0  0  0
   35.2112  -24.8648   42.6493 N   0  0  0  0  0  0  0  0  0  0  0  0
   35.1869  -24.9137   44.0799 C   0  0  0  0  0  0  0  0  0  0  0  0
   36.5326  -24.8879   42.1005 C   0  0  0  0  0  0  0  0  0  0  0  0
   36.6669  -25.8503   40.9629 C   0  0  0  0  0  0  0  0  0  0  0  0
   40.0654  -24.3150   37.2898 C   0  0  0  0  0  0  0  0  0  0  0  0
   38.6988  -24.0378   37.0586 O   0  0  0  0  0  0  0  0  0  0  0  0
   38.9597  -19.0466   34.8867 C   0  0  0  0  0  0  0  0  0  0  0  0
   39.6162  -18.8368   33.9544 N   0  0  0  0  0  0  0  0  0  0  0  0
 35 36  1  0  0  0
 36  1  1  0  0  0
  1  2  2  0  0  0
  2  3  1  0  0  0
  3  4  2  0  0  0
  4 37  1  0  0  0
 37 38  3  0  0  0
  4  5  1  0  0  0
  5  6  2  0  0  0
  6  7  1  0  0  0
  7  8  1  0  0  0
  8  9  2  0  0  0
  9 24  1  0  0  0
 24 25  1  0  0  0
 25 26  2  0  0  0
 25 28  1  0  0  0
 28 29  1  0  0  0
 29 30  1  0  0  0
 30 31  1  0  0  0
 31 32  1  0  0  0
 31 33  1  0  0  0
 33 34  1  0  0  0
  5 10  1  0  0  0
 10 11  1  0  0  0
 11 12  1  0  0  0
 12 13  1  0  0  0
 13 14  1  0  0  0
 14 15  1  0  0  0
 13 16  1  0  0  0
 16 17  1  0  0  0
 17 18  2  0  0  0
 17 19  1  0  0  0
 19 20  1  0  0  0
 20 21  2  0  0  0
  9  1  1  0  0  0
 34 28  1  0  0  0
 15 10  1  0  0  0
  7  3  1  0  0  0
 20 13  1  0  0  0
 24 27  1  0  0  0
 16 22  1  0  0  0
 19 23  1  0  0  0
M  END
> <minimizedAffinity>
-4.57902

> <CNNscore>
0.4375675619

> <CNNaffinity>
5.9157476425

> <CNN_VS>
2.5885393620

> <CNNaffinity_variance>
0.3214311004

$$$$
[H]c1c(OC([H])([H])[H])c(N([H])C(=O)C2([H])C([H])([H])C([H])([H])N(C([H])([H])[H])C([H])([H])C2([H])[H])c([H])n2nc(C3([H])C([H])([H])C([H])([H])C4(C(=O)N([H])C(=O)N4[H])C([H])([H])C3([H])[H])c(C#N)c12


 38 42  0  0  0  0  0  0  0  0999 V2000
   37.0692  -22.1183   38.6592 C   0  0  0  0  0  0  0  0  0  0  0  0
   37.4927  -21.3196   37.6430 C   0  0  0  0  0  0  0  0  0  0  0  0
   36.9465  -20.0814   37.5151 C   0  0  0  0  0  0  0  0  0  0  0  0
   37.1267  -19.0248   36.6276 C   0  0  0  0  0  0  0  0  0  0  0  0
   36.2901  -18.0094   36.9914 C   0  0  0  0  0  0  0  0  0  0  0  0
   35.6193  -18.4426   38.0737 N   0  0  0  0  0  0  0  0  0  0  0  0
   36.0097  -19.6644   38.3783 N   0  0  0  0  0  0  0  0  0  0  0  0
   35.5859  -20.4736   39.4016 C   0  0  0  0  0  0  0  0  0  0  0  0
   36.0865  -21.7309   39.5963 C   0  0  0  0  0  0  0  0  0  0  0  0
   36.1110  -16.7078   36.3855 C   0  0  0  0  0  0  0  0  0  0  0  0
   34.7207  -16.4246   35.9104 C   0  0  0  0  0  0  0  0  0  0  0  0
   34.3995  -15.0172   35.6147 C   0  0  0  0  0  0  0  0  0  0  0  0
   35.2090  -13.9600   36.2412 C   0  0  0  0  0  0  0  0  0  0  0  0
   36.5998  -14.3574   36.6631 C   0  0  0  0  0  0  0  0  0  0  0  0
   36.4612  -15.6583   37.4226 C   0  0  0  0  0  0  0  0  0  0  0  0
   35.3587  -12.8216   35.3356 N   0  0  0  0  0  0  0  0  0  0  0  0
   35.3469  -11.6044   36.0468 C   0  0  0  0  0  0  0  0  0  0  0  0
   35.7367  -10.5039   35.5815 O   0  0  0  0  0  0  0  0  0  0  0  0
   34.8203  -11.9080   37.3341 N   0  0  0  0  0  0  0  0  0  0  0  0
   34.5179  -13.2962   37.3974 C   0  0  0  0  0  0  0  0  0  0  0  0
   33.7939  -13.8009   38.2920 O   0  0  0  0  0  0  0  0  0  0  0  0
   35.4620  -12.8840   34.2949 H   0  0  0  0  0  0  0  0  0  0  0  0
   34.7046  -11.1715   38.0647 H   0  0  0  0  0  0  0  0  0  0  0  0
   35.7234  -22.6424   40.6131 N   0  0  0  0  0  0  0  0  0  0  0  0
   34.4687  -23.2430   40.7433 C   0  0  0  0  0  0  0  0  0  0  0  0
   33.5089  -23.0600   39.9904 O   0  0  0  0  0  0  0  0  0  0  0  0
   36.4635  -22.9046   41.3559 H   0  0  0  0  0  0  0  0  0  0  0  0
   34.1923  -24.2090   41.8782 C   0  0  0  0  0  0  0  0  0  0  0  0
   32.9528  -25.0138   41.5841 C   0  0  0  0  0  0  0  0  0  0  0  0
   32.0702  -24.9879   42.8116 C   0  0  0  0  0  0  0  0  0  0  0  0
   31.6956  -23.6170   43.1405 N   0  0  0  0  0  0  0  0  0  0  0  0
   30.6820  -23.5583   44.1498 C   0  0  0  0  0  0  0  0  0  0  0  0
   32.8404  -22.8103   43.4346 C   0  0  0  0  0  0  0  0  0  0  0  0
   34.1294  -23.5332   43.2020 C   0  0  0  0  0  0  0  0  0  0  0  0
   38.0034  -24.1536   37.6857 C   0  0  0  0  0  0  0  0  0  0  0  0
   37.6145  -23.3826   38.8048 O   0  0  0  0  0  0  0  0  0  0  0  0
   38.0364  -19.0442   35.5342 C   0  0  0  0  0  0  0  0  0  0  0  0
   38.7749  -19.0802   34.6412 N   0  0  0  0  0  0  0  0  0  0  0  0
 35 36  1  0  0  0
 36  1  1  0  0  0
  1  2  2  0  0  0
  2  3  1  0  0  0
  3  4  2  0  0  0
  4 37  1  0  0  0
 37 38  3  0  0  0
  4  5  1  0  0  0
  5  6  2  0  0  0
  6  7  1  0  0  0
  7  8  1  0  0  0
  8  9  2  0  0  0
  9 24  1  0  0  0
 24 25  1  0  0  0
 25 26  2  0  0  0
 25 28  1  0  0  0
 28 29  1  0  0  0
 29 30  1  0  0  0
 30 31  1  0  0  0
 31 32  1  0  0  0
 31 33  1  0  0  0
 33 34  1  0  0  0
  5 10  1  0  0  0
 10 11  1  0  0  0
 11 12  1  0  0  0
 12 13  1  0  0  0
 13 14  1  0  0  0
 14 15  1  0  0  0
 13 16  1  0  0  0
 16 17  1  0  0  0
 17 18  2  0  0  0
 17 19  1  0  0  0
 19 20  1  0  0  0
 20 21  2  0  0  0
  9  1  1  0  0  0
 34 28  1  0  0  0
 15 10  1  0  0  0
  7  3  1  0  0  0
 20 13  1  0  0  0
 24 27  1  0  0  0
 16 22  1  0  0  0
 19 23  1  0  0  0
M  END
> <minimizedAffinity>
-5.75367

> <CNNscore>
0.4285389185

> <CNNaffinity>
6.0430006981

> <CNN_VS>
2.5896608829

> <CNNaffinity_variance>
0.0957356244

$$$$
[H]c1c(OC([H])([H])[H])c(N([H])C(=O)C2([H])C([H])([H])C([H])([H])N(C([H])([H])[H])C([H])([H])C2([H])[H])c([H])n2nc(C3([H])C([H])([H])C([H])([H])C4(C(=O)N([H])C(=O)N4[H])C([H])([H])C3([H])[H])c(C#N)c12


 38 42  0  0  0  0  0  0  0  0999 V2000
   42.3125  -22.0751   36.5215 C   0  0  0  0  0  0  0  0  0  0  0  0
   41.5501  -21.4094   35.6128 C   0  0  0  0  0  0  0  0  0  0  0  0
   40.3974  -20.8237   36.0323 C   0  0  0  0  0  0  0  0  0  0  0  0
   39.3978  -20.0841   35.4075 C   0  0  0  0  0  0  0  0  0  0  0  0
   38.4623  -19.7478   36.3430 C   0  0  0  0  0  0  0  0  0  0  0  0
   38.8866  -20.2726   37.5064 N   0  0  0  0  0  0  0  0  0  0  0  0
   40.0275  -20.9058   37.3180 N   0  0  0  0  0  0  0  0  0  0  0  0
   40.7998  -21.5783   38.2306 C   0  0  0  0  0  0  0  0  0  0  0  0
   41.9715  -22.1932   37.8866 C   0  0  0  0  0  0  0  0  0  0  0  0
   37.2431  -18.9847   36.1868 C   0  0  0  0  0  0  0  0  0  0  0  0
   36.3907  -18.9089   37.4142 C   0  0  0  0  0  0  0  0  0  0  0  0
   35.3389  -17.8769   37.4230 C   0  0  0  0  0  0  0  0  0  0  0  0
   35.4835  -16.7117   36.5360 C   0  0  0  0  0  0  0  0  0  0  0  0
   36.3521  -16.9117   35.3211 C   0  0  0  0  0  0  0  0  0  0  0  0
   37.6254  -17.5668   35.8088 C   0  0  0  0  0  0  0  0  0  0  0  0
   34.1776  -16.2730   36.0455 N   0  0  0  0  0  0  0  0  0  0  0  0
   34.1226  -14.8683   35.9395 C   0  0  0  0  0  0  0  0  0  0  0  0
   33.2525  -14.2366   35.2888 O   0  0  0  0  0  0  0  0  0  0  0  0
   35.2206  -14.3749   36.6997 N   0  0  0  0  0  0  0  0  0  0  0  0
   35.9305  -15.4733   37.2584 C   0  0  0  0  0  0  0  0  0  0  0  0
   36.7663  -15.3487   38.1885 O   0  0  0  0  0  0  0  0  0  0  0  0
   33.3782  -16.9046   35.8008 H   0  0  0  0  0  0  0  0  0  0  0  0
   35.4096  -13.3519   36.7859 H   0  0  0  0  0  0  0  0  0  0  0  0
   42.8395  -22.9080   38.7423 N   0  0  0  0  0  0  0  0  0  0  0  0
   43.7369  -22.3287   39.6428 C   0  0  0  0  0  0  0  0  0  0  0  0
   43.8938  -21.1172   39.8134 O   0  0  0  0  0  0  0  0  0  0  0  0
   42.8194  -23.9882   38.7081 H   0  0  0  0  0  0  0  0  0  0  0  0
   44.6219  -23.1982   40.5137 C   0  0  0  0  0  0  0  0  0  0  0  0
   44.3623  -24.6544   40.2262 C   0  0  0  0  0  0  0  0  0  0  0  0
   44.1813  -25.3715   41.5452 C   0  0  0  0  0  0  0  0  0  0  0  0
   43.0529  -24.8100   42.2794 N   0  0  0  0  0  0  0  0  0  0  0  0
   42.7011  -25.5991   43.4209 C   0  0  0  0  0  0  0  0  0  0  0  0
   43.2533  -23.4260   42.5828 C   0  0  0  0  0  0  0  0  0  0  0  0
   44.4967  -22.8741   41.9601 C   0  0  0  0  0  0  0  0  0  0  0  0
   43.4864  -23.7980   35.2500 C   0  0  0  0  0  0  0  0  0  0  0  0
   43.4899  -22.6778   36.1120 O   0  0  0  0  0  0  0  0  0  0  0  0
   39.3884  -19.7610   34.0222 C   0  0  0  0  0  0  0  0  0  0  0  0
   39.3641  -19.5094   32.8908 N   0  0  0  0  0  0  0  0  0  0  0  0
 35 36  1  0  0  0
 36  1  1  0  0  0
  1  2  2  0  0  0
  2  3  1  0  0  0
  3  4  2  0  0  0
  4 37  1  0  0  0
 37 38  3  0  0  0
  4  5  1  0  0  0
  5  6  2  0  0  0
  6  7  1  0  0  0
  7  8  1  0  0  0
  8  9  2  0  0  0
  9 24  1  0  0  0
 24 25  1  0  0  0
 25 26  2  0  0  0
 25 28  1  0  0  0
 28 29  1  0  0  0
 29 30  1  0  0  0
 30 31  1  0  0  0
 31 32  1  0  0  0
 31 33  1  0  0  0
 33 34  1  0  0  0
  5 10  1  0  0  0
 10 11  1  0  0  0
 11 12  1  0  0  0
 12 13  1  0  0  0
 13 14  1  0  0  0
 14 15  1  0  0  0
 13 16  1  0  0  0
 16 17  1  0  0  0
 17 18  2  0  0  0
 17 19  1  0  0  0
 19 20  1  0  0  0
 20 21  2  0  0  0
  9  1  1  0  0  0
 34 28  1  0  0  0
 15 10  1  0  0  0
  7  3  1  0  0  0
 20 13  1  0  0  0
 24 27  1  0  0  0
 16 22  1  0  0  0
 19 23  1  0  0  0
M  END
> <minimizedAffinity>
-4.24804

> <CNNscore>
0.4211555421

> <CNNaffinity>
5.5607447624

> <CNN_VS>
2.3419384956

> <CNNaffinity_variance>
0.2401767224

$$$$
[H]c1c(OC([H])([H])[H])c(N([H])C(=O)C2([H])C([H])([H])C([H])([H])N(C([H])([H])[H])C([H])([H])C2([H])[H])c([H])n2nc(C3([H])C([H])([H])C([H])([H])C4(C(=O)N([H])C(=O)N4[H])C([H])([H])C3([H])[H])c(C#N)c12


 38 42  0  0  0  0  0  0  0  0999 V2000
   33.8947  -23.7564   37.2592 C   0  0  0  0  0  0  0  0  0  0  0  0
   35.0952  -23.1595   37.0301 C   0  0  0  0  0  0  0  0  0  0  0  0
   35.1480  -21.8026   36.9681 C   0  0  0  0  0  0  0  0  0  0  0  0
   36.1651  -20.8765   36.7573 C   0  0  0  0  0  0  0  0  0  0  0  0
   35.6234  -19.6243   36.8018 C   0  0  0  0  0  0  0  0  0  0  0  0
   34.3090  -19.7899   37.0337 N   0  0  0  0  0  0  0  0  0  0  0  0
   34.0338  -21.0755   37.1308 N   0  0  0  0  0  0  0  0  0  0  0  0
   32.8254  -21.6823   37.3616 C   0  0  0  0  0  0  0  0  0  0  0  0
   32.6907  -23.0407   37.4376 C   0  0  0  0  0  0  0  0  0  0  0  0
   36.2701  -18.3399   36.6432 C   0  0  0  0  0  0  0  0  0  0  0  0
   35.9925  -17.6558   35.3416 C   0  0  0  0  0  0  0  0  0  0  0  0
   36.3255  -16.2224   35.2667 C   0  0  0  0  0  0  0  0  0  0  0  0
   36.4157  -15.4507   36.5163 C   0  0  0  0  0  0  0  0  0  0  0  0
   36.7172  -16.2444   37.7611 C   0  0  0  0  0  0  0  0  0  0  0  0
   35.7770  -17.4293   37.7511 C   0  0  0  0  0  0  0  0  0  0  0  0
   37.4543  -14.4262   36.4149 N   0  0  0  0  0  0  0  0  0  0  0  0
   37.0745  -13.2514   37.0953 C   0  0  0  0  0  0  0  0  0  0  0  0
   37.8642  -12.3288   37.4188 O   0  0  0  0  0  0  0  0  0  0  0  0
   35.6714  -13.3599   37.3110 N   0  0  0  0  0  0  0  0  0  0  0  0
   35.2107  -14.5897   36.7651 C   0  0  0  0  0  0  0  0  0  0  0  0
   33.9960  -14.8362   36.5576 O   0  0  0  0  0  0  0  0  0  0  0  0
   38.3649  -14.5340   35.9080 H   0  0  0  0  0  0  0  0  0  0  0  0
   35.1346  -12.6112   37.8018 H   0  0  0  0  0  0  0  0  0  0  0  0
   31.5002  -23.7652   37.6709 N   0  0  0  0  0  0  0  0  0  0  0  0
   30.7125  -23.6677   38.8207 C   0  0  0  0  0  0  0  0  0  0  0  0
   30.9482  -22.9378   39.7867 O   0  0  0  0  0  0  0  0  0  0  0  0
   31.1601  -24.4530   36.9097 H   0  0  0  0  0  0  0  0  0  0  0  0
   29.4513  -24.4966   38.9617 C   0  0  0  0  0  0  0  0  0  0  0  0
   29.5455  -25.7337   38.1066 C   0  0  0  0  0  0  0  0  0  0  0  0
   28.2625  -25.8608   37.3163 C   0  0  0  0  0  0  0  0  0  0  0  0
   28.0712  -24.6920   36.4648 N   0  0  0  0  0  0  0  0  0  0  0  0
   26.9974  -24.8680   35.5344 C   0  0  0  0  0  0  0  0  0  0  0  0
   27.9696  -23.4880   37.2315 C   0  0  0  0  0  0  0  0  0  0  0  0
   28.2174  -23.7113   38.6899 C   0  0  0  0  0  0  0  0  0  0  0  0
   33.0722  -25.8846   36.3888 C   0  0  0  0  0  0  0  0  0  0  0  0
   33.8221  -25.1375   37.3256 O   0  0  0  0  0  0  0  0  0  0  0  0
   37.5266  -21.2206   36.5308 C   0  0  0  0  0  0  0  0  0  0  0  0
   38.6420  -21.4833   36.3548 N   0  0  0  0  0  0  0  0  0  0  0  0
 35 36  1  0  0  0
 36  1  1  0  0  0
  1  2  2  0  0  0
  2  3  1  0  0  0
  3  4  2  0  0  0
  4 37  1  0  0  0
 37 38  3  0  0  0
  4  5  1  0  0  0
  5  6  2  0  0  0
  6  7  1  0  0  0
  7  8  1  0  0  0
  8  9  2  0  0  0
  9 24  1  0  0  0
 24 25  1  0  0  0
 25 26  2  0  0  0
 25 28  1  0  0  0
 28 29  1  0  0  0
 29 30  1  0  0  0
 30 31  1  0  0  0
 31 32  1  0  0  0
 31 33  1  0  0  0
 33 34  1  0  0  0
  5 10  1  0  0  0
 10 11  1  0  0  0
 11 12  1  0  0  0
 12 13  1  0  0  0
 13 14  1  0  0  0
 14 15  1  0  0  0
 13 16  1  0  0  0
 16 17  1  0  0  0
 17 18  2  0  0  0
 17 19  1  0  0  0
 19 20  1  0  0  0
 20 21  2  0  0  0
  9  1  1  0  0  0
 34 28  1  0  0  0
 15 10  1  0  0  0
  7  3  1  0  0  0
 20 13  1  0  0  0
 24 27  1  0  0  0
 16 22  1  0  0  0
 19 23  1  0  0  0
M  END
> <minimizedAffinity>
-4.54123

> <CNNscore>
0.4157629609

> <CNNaffinity>
6.0115270615

> <CNN_VS>
2.4993703365

> <CNNaffinity_variance>
0.7356067896

$$$$
[H]c1c(OC([H])([H])[H])c(N([H])C(=O)C2([H])C([H])([H])C([H])([H])N(C([H])([H])[H])C([H])([H])C2([H])[H])c([H])n2nc(C3([H])C([H])([H])C([H])([H])C4(C(=O)N([H])C(=O)N4[H])C([H])([H])C3([H])[H])c(C#N)c12


 38 42  0  0  0  0  0  0  0  0999 V2000
   37.7209  -23.4523   37.6436 C   0  0  0  0  0  0  0  0  0  0  0  0
   36.8116  -22.5372   37.2124 C   0  0  0  0  0  0  0  0  0  0  0  0
   37.1912  -21.2355   37.1161 C   0  0  0  0  0  0  0  0  0  0  0  0
   36.5533  -20.0616   36.7266 C   0  0  0  0  0  0  0  0  0  0  0  0
   37.4435  -19.0323   36.8322 C   0  0  0  0  0  0  0  0  0  0  0  0
   38.5930  -19.5715   37.2758 N   0  0  0  0  0  0  0  0  0  0  0  0
   38.4391  -20.8704   37.4417 N   0  0  0  0  0  0  0  0  0  0  0  0
   39.3525  -21.7970   37.8760 C   0  0  0  0  0  0  0  0  0  0  0  0
   39.0473  -23.1239   37.9996 C   0  0  0  0  0  0  0  0  0  0  0  0
   37.2583  -17.6271   36.5419 C   0  0  0  0  0  0  0  0  0  0  0  0
   36.8073  -17.3305   35.1463 C   0  0  0  0  0  0  0  0  0  0  0  0
   36.2720  -15.9799   34.9001 C   0  0  0  0  0  0  0  0  0  0  0  0
   35.7491  -15.2077   36.0383 C   0  0  0  0  0  0  0  0  0  0  0  0
   36.2891  -15.5837   37.3938 C   0  0  0  0  0  0  0  0  0  0  0  0
   36.2002  -17.0909   37.4867 C   0  0  0  0  0  0  0  0  0  0  0  0
   36.0232  -13.7821   35.8626 N   0  0  0  0  0  0  0  0  0  0  0  0
   34.9605  -12.9978   36.3558 C   0  0  0  0  0  0  0  0  0  0  0  0
   35.0369  -11.7672   36.5993 O   0  0  0  0  0  0  0  0  0  0  0  0
   33.8548  -13.8829   36.5003 N   0  0  0  0  0  0  0  0  0  0  0  0
   34.2486  -15.1888   36.0975 C   0  0  0  0  0  0  0  0  0  0  0  0
   33.4277  -16.1084   35.8531 O   0  0  0  0  0  0  0  0  0  0  0  0
   36.8884  -13.3798   35.4297 H   0  0  0  0  0  0  0  0  0  0  0  0
   32.9309  -13.5497   36.8537 H   0  0  0  0  0  0  0  0  0  0  0  0
   39.9076  -24.1572   38.4341 N   0  0  0  0  0  0  0  0  0  0  0  0
   40.2243  -24.4321   39.7668 C   0  0  0  0  0  0  0  0  0  0  0  0
   39.7972  -23.8119   40.7437 O   0  0  0  0  0  0  0  0  0  0  0  0
   40.3646  -24.7924   37.6884 H   0  0  0  0  0  0  0  0  0  0  0  0
   41.1625  -25.5704   40.1154 C   0  0  0  0  0  0  0  0  0  0  0  0
   41.1757  -25.7938   41.6056 C   0  0  0  0  0  0  0  0  0  0  0  0
   42.6160  -25.8845   42.0571 C   0  0  0  0  0  0  0  0  0  0  0  0
   43.3270  -24.6504   41.7420 N   0  0  0  0  0  0  0  0  0  0  0  0
   44.6219  -24.5994   42.3504 C   0  0  0  0  0  0  0  0  0  0  0  0
   43.3481  -24.3950   40.3341 C   0  0  0  0  0  0  0  0  0  0  0  0
   42.5282  -25.3771   39.5584 C   0  0  0  0  0  0  0  0  0  0  0  0
   36.5655  -25.4119   36.7559 C   0  0  0  0  0  0  0  0  0  0  0  0
   37.3519  -24.7827   37.7478 O   0  0  0  0  0  0  0  0  0  0  0  0
   35.1973  -19.9903   36.3026 C   0  0  0  0  0  0  0  0  0  0  0  0
   34.0981  -19.9368   35.9380 N   0  0  0  0  0  0  0  0  0  0  0  0
 35 36  1  0  0  0
 36  1  1  0  0  0
  1  2  2  0  0  0
  2  3  1  0  0  0
  3  4  2  0  0  0
  4 37  1  0  0  0
 37 38  3  0  0  0
  4  5  1  0  0  0
  5  6  2  0  0  0
  6  7  1  0  0  0
  7  8  1  0  0  0
  8  9  2  0  0  0
  9 24  1  0  0  0
 24 25  1  0  0  0
 25 26  2  0  0  0
 25 28  1  0  0  0
 28 29  1  0  0  0
 29 30  1  0  0  0
 30 31  1  0  0  0
 31 32  1  0  0  0
 31 33  1  0  0  0
 33 34  1  0  0  0
  5 10  1  0  0  0
 10 11  1  0  0  0
 11 12  1  0  0  0
 12 13  1  0  0  0
 13 14  1  0  0  0
 14 15  1  0  0  0
 13 16  1  0  0  0
 16 17  1  0  0  0
 17 18  2  0  0  0
 17 19  1  0  0  0
 19 20  1  0  0  0
 20 21  2  0  0  0
  9  1  1  0  0  0
 34 28  1  0  0  0
 15 10  1  0  0  0
  7  3  1  0  0  0
 20 13  1  0  0  0
 24 27  1  0  0  0
 16 22  1  0  0  0
 19 23  1  0  0  0
M  END
> <minimizedAffinity>
-5.03684

> <CNNscore>
0.4150511920

> <CNNaffinity>
5.6975336075

> <CNN_VS>
2.3647680283

> <CNNaffinity_variance>
0.1341443807

$$$$
[H]OC([H])([H])[C@]([H])(N([H])c1c([H])c([H])c2nc([H])c(N([H])[C@]3([H])C([H])([H])C([H])([H])[C@@]([H])(C([H])([H])C(=O)N([H])[H])C([H])([H])C3([H])OC(C([H])([H])[H])(C([H])([H])[H])C([H])([H])[H])c(OC([H])(F)F)c2c1[H])C([H])(C([H])([H])[H])C([H])([H])[H]


 42 44  0  0  0  0  0  0  0  0999 V2000
   36.6565  -17.9806   36.4733 C   0  0  0  0  0  0  0  0  0  0  0  0
   35.5714  -18.3015   35.7150 C   0  0  0  0  0  0  0  0  0  0  0  0
   34.5495  -17.3973   35.4476 C   0  0  0  0  0  0  0  0  0  0  0  0
   34.6444  -16.1287   35.9732 C   0  0  0  0  0  0  0  0  0  0  0  0
   33.6477  -15.2300   35.7280 N   0  0  0  0  0  0  0  0  0  0  0  0
   33.6666  -13.9884   36.2083 C   0  0  0  0  0  0  0  0  0  0  0  0
   34.7390  -13.5721   36.9940 C   0  0  0  0  0  0  0  0  0  0  0  0
   35.7879  -14.4354   37.2809 C   0  0  0  0  0  0  0  0  0  0  0  0
   35.7252  -15.7271   36.7584 C   0  0  0  0  0  0  0  0  0  0  0  0
   36.6832  -16.6673   36.9755 C   0  0  0  0  0  0  0  0  0  0  0  0
   37.7341  -18.8404   36.7699 N   0  0  0  0  0  0  0  0  0  0  0  0
   38.3829  -18.4724   37.5928 H   0  0  0  0  0  0  0  0  0  0  0  0
   38.1594  -20.0708   36.2457 C   0  0  0  0  0  0  0  0  0  0  0  0
   38.3431  -20.8363   38.6113 C   0  0  0  0  0  0  0  0  0  0  0  0
   37.9105  -21.2027   37.1940 C   0  0  0  0  0  0  0  0  0  0  0  0
   36.4984  -21.6549   37.2011 C   0  0  0  0  0  0  0  0  0  0  0  0
   39.5174  -20.1600   35.6278 C   0  0  0  0  0  0  0  0  0  0  0  0
   39.9462  -21.4888   35.5399 O   0  0  0  0  0  0  0  0  0  0  0  0
   40.1540  -21.6907   34.5984 H   0  0  0  0  0  0  0  0  0  0  0  0
   34.7242  -12.2759   37.5450 N   0  0  0  0  0  0  0  0  0  0  0  0
   35.6168  -11.8035   37.7347 H   0  0  0  0  0  0  0  0  0  0  0  0
   33.5024  -11.5847   37.8621 C   0  0  0  0  0  0  0  0  0  0  0  0
   32.3867  -12.6013   37.6969 C   0  0  0  0  0  0  0  0  0  0  0  0
   31.0460  -12.0756   38.1610 C   0  0  0  0  0  0  0  0  0  0  0  0
   30.8014  -10.8038   37.4153 C   0  0  0  0  0  0  0  0  0  0  0  0
   31.9016   -9.7976   37.7384 C   0  0  0  0  0  0  0  0  0  0  0  0
   33.2077  -10.3707   37.0482 C   0  0  0  0  0  0  0  0  0  0  0  0
   29.4487  -10.2079   37.6162 C   0  0  0  0  0  0  0  0  0  0  0  0
   29.0385  -10.0971   39.0286 C   0  0  0  0  0  0  0  0  0  0  0  0
   29.0674   -8.8242   39.7091 N   0  0  0  0  0  0  0  0  0  0  0  0
   28.6502  -11.0548   39.7180 O   0  0  0  0  0  0  0  0  0  0  0  0
   29.9191   -8.2291   39.6623 H   0  0  0  0  0  0  0  0  0  0  0  0
   28.2311   -8.5437   40.2263 H   0  0  0  0  0  0  0  0  0  0  0  0
   34.1888   -9.4392   37.2000 O   0  0  0  0  0  0  0  0  0  0  0  0
   34.8602   -8.9778   36.1261 C   0  0  0  0  0  0  0  0  0  0  0  0
   35.8461   -7.8863   36.2844 C   0  0  0  0  0  0  0  0  0  0  0  0
   33.7837   -8.4291   35.1626 C   0  0  0  0  0  0  0  0  0  0  0  0
   35.5203  -10.0977   35.3132 C   0  0  0  0  0  0  0  0  0  0  0  0
   36.8825  -14.0787   38.0492 O   0  0  0  0  0  0  0  0  0  0  0  0
   38.0743  -13.5164   37.6011 C   0  0  0  0  0  0  0  0  0  0  0  0
   37.8843  -12.4088   36.7480 F   0  0  0  0  0  0  0  0  0  0  0  0
   38.9252  -13.1556   38.6228 F   0  0  0  0  0  0  0  0  0  0  0  0
 14 15  1  0  0  0
 15 16  1  0  0  0
 15 13  1  0  0  0
 13 17  1  0  0  0
 17 18  1  0  0  0
 13 11  1  0  0  0
 11  1  1  0  0  0
  1  2  2  0  0  0
  2  3  1  0  0  0
  3  4  2  0  0  0
  4  5  1  0  0  0
  5  6  2  0  0  0
  6  7  1  0  0  0
  7 20  1  0  0  0
 20 22  1  0  0  0
 22 23  1  0  0  0
 23 24  1  0  0  0
 24 25  1  0  0  0
 25 28  1  0  0  0
 28 29  1  0  0  0
 29 30  1  0  0  0
 29 31  2  0  0  0
 25 26  1  0  0  0
 26 27  1  0  0  0
 27 34  1  0  0  0
 34 35  1  0  0  0
 35 36  1  0  0  0
 35 37  1  0  0  0
 35 38  1  0  0  0
  7  8  2  0  0  0
  8 39  1  0  0  0
 39 40  1  0  0  0
 40 41  1  0  0  0
 40 42  1  0  0  0
  8  9  1  0  0  0
  9 10  2  0  0  0
 10  1  1  0  0  0
  9  4  1  0  0  0
 27 22  1  0  0  0
 18 19  1  0  0  0
 11 12  1  0  0  0
 20 21  1  0  0  0
 30 32  1  0  0  0
 30 33  1  0  0  0
M  END
> <minimizedAffinity>
-6.09412

> <CNNscore>
0.5462028384

> <CNNaffinity>
7.4506926537

> <CNN_VS>
4.0695896149

> <CNNaffinity_variance>
0.1443206370

$$$$
[H]OC([H])([H])[C@]([H])(N([H])c1c([H])c([H])c2nc([H])c(N([H])[C@]3([H])C([H])([H])C([H])([H])[C@@]([H])(C([H])([H])C(=O)N([H])[H])C([H])([H])C3([H])OC(C([H])([H])[H])(C([H])([H])[H])C([H])([H])[H])c(OC([H])(F)F)c2c1[H])C([H])(C([H])([H])[H])C([H])([H])[H]


 42 44  0  0  0  0  0  0  0  0999 V2000
   33.9885  -13.0884   36.7546 C   0  0  0  0  0  0  0  0  0  0  0  0
   33.1306  -13.7904   35.9631 C   0  0  0  0  0  0  0  0  0  0  0  0
   33.4146  -15.0704   35.5000 C   0  0  0  0  0  0  0  0  0  0  0  0
   34.6125  -15.6453   35.8596 C   0  0  0  0  0  0  0  0  0  0  0  0
   34.9121  -16.8975   35.4086 N   0  0  0  0  0  0  0  0  0  0  0  0
   36.0532  -17.5145   35.7084 C   0  0  0  0  0  0  0  0  0  0  0  0
   36.9904  -16.8717   36.5141 C   0  0  0  0  0  0  0  0  0  0  0  0
   36.7485  -15.5971   37.0086 C   0  0  0  0  0  0  0  0  0  0  0  0
   35.5408  -14.9883   36.6673 C   0  0  0  0  0  0  0  0  0  0  0  0
   35.1913  -13.7406   37.0796 C   0  0  0  0  0  0  0  0  0  0  0  0
   33.7579  -11.7970   37.2719 N   0  0  0  0  0  0  0  0  0  0  0  0
   34.6369  -11.3643   37.7951 H   0  0  0  0  0  0  0  0  0  0  0  0
   32.6489  -10.9371   37.2613 C   0  0  0  0  0  0  0  0  0  0  0  0
   34.3151   -9.1252   36.8651 C   0  0  0  0  0  0  0  0  0  0  0  0
   33.0287   -9.5249   37.5833 C   0  0  0  0  0  0  0  0  0  0  0  0
   31.9561   -8.5494   37.2724 C   0  0  0  0  0  0  0  0  0  0  0  0
   31.4089  -11.3515   37.9856 C   0  0  0  0  0  0  0  0  0  0  0  0
   30.4170  -11.7684   37.0913 O   0  0  0  0  0  0  0  0  0  0  0  0
   30.1491  -12.6873   37.3247 H   0  0  0  0  0  0  0  0  0  0  0  0
   38.2187  -17.5078   36.7800 N   0  0  0  0  0  0  0  0  0  0  0  0
   38.9941  -16.9551   37.1664 H   0  0  0  0  0  0  0  0  0  0  0  0
   38.4358  -18.9072   36.5241 C   0  0  0  0  0  0  0  0  0  0  0  0
   37.4699  -19.6564   37.4248 C   0  0  0  0  0  0  0  0  0  0  0  0
   37.4526  -21.1443   37.1509 C   0  0  0  0  0  0  0  0  0  0  0  0
   38.8639  -21.6204   37.2727 C   0  0  0  0  0  0  0  0  0  0  0  0
   39.7385  -20.9066   36.2466 C   0  0  0  0  0  0  0  0  0  0  0  0
   39.8242  -19.4044   36.7434 C   0  0  0  0  0  0  0  0  0  0  0  0
   39.0369  -23.0999   37.1938 C   0  0  0  0  0  0  0  0  0  0  0  0
   40.4384  -23.5519   37.2777 C   0  0  0  0  0  0  0  0  0  0  0  0
   41.2145  -23.3355   38.4756 N   0  0  0  0  0  0  0  0  0  0  0  0
   41.0388  -24.1328   36.3583 O   0  0  0  0  0  0  0  0  0  0  0  0
   41.2431  -22.3924   38.9131 H   0  0  0  0  0  0  0  0  0  0  0  0
   41.7219  -24.1344   38.8629 H   0  0  0  0  0  0  0  0  0  0  0  0
   40.7020  -18.7571   35.9287 O   0  0  0  0  0  0  0  0  0  0  0  0
   41.9942  -18.6259   36.2894 C   0  0  0  0  0  0  0  0  0  0  0  0
   43.0221  -19.5018   35.6853 C   0  0  0  0  0  0  0  0  0  0  0  0
   42.0380  -18.9187   37.8062 C   0  0  0  0  0  0  0  0  0  0  0  0
   42.4918  -17.1787   36.1972 C   0  0  0  0  0  0  0  0  0  0  0  0
   37.6367  -14.9103   37.8180 O   0  0  0  0  0  0  0  0  0  0  0  0
   37.9657  -13.5599   37.7453 C   0  0  0  0  0  0  0  0  0  0  0  0
   38.7267  -13.1096   38.8447 F   0  0  0  0  0  0  0  0  0  0  0  0
   38.6156  -13.2188   36.5794 F   0  0  0  0  0  0  0  0  0  0  0  0
 14 15  1  0  0  0
 15 16  1  0  0  0
 15 13  1  0  0  0
 13 17  1  0  0  0
 17 18  1  0  0  0
 13 11  1  0  0  0
 11  1  1  0  0  0
  1  2  2  0  0  0
  2  3  1  0  0  0
  3  4  2  0  0  0
  4  5  1  0  0  0
  5  6  2  0  0  0
  6  7  1  0  0  0
  7 20  1  0  0  0
 20 22  1  0  0  0
 22 23  1  0  0  0
 23 24  1  0  0  0
 24 25  1  0  0  0
 25 28  1  0  0  0
 28 29  1  0  0  0
 29 30  1  0  0  0
 29 31  2  0  0  0
 25 26  1  0  0  0
 26 27  1  0  0  0
 27 34  1  0  0  0
 34 35  1  0  0  0
 35 36  1  0  0  0
 35 37  1  0  0  0
 35 38  1  0  0  0
  7  8  2  0  0  0
  8 39  1  0  0  0
 39 40  1  0  0  0
 40 41  1  0  0  0
 40 42  1  0  0  0
  8  9  1  0  0  0
  9 10  2  0  0  0
 10  1  1  0  0  0
  9  4  1  0  0  0
 27 22  1  0  0  0
 18 19  1  0  0  0
 11 12  1  0  0  0
 20 21  1  0  0  0
 30 32  1  0  0  0
 30 33  1  0  0  0
M  END
> <minimizedAffinity>
-6.71544

> <CNNscore>
0.4141946435

> <CNNaffinity>
6.6967840195

> <CNN_VS>
2.7737720013

> <CNNaffinity_variance>
0.1160830036

$$$$
[H]OC([H])([H])[C@]([H])(N([H])c1c([H])c([H])c2nc([H])c(N([H])[C@]3([H])C([H])([H])C([H])([H])[C@@]([H])(C([H])([H])C(=O)N([H])[H])C([H])([H])C3([H])OC(C([H])([H])[H])(C([H])([H])[H])C([H])([H])[H])c(OC([H])(F)F)c2c1[H])C([H])(C([H])([H])[H])C([H])([H])[H]


 42 44  0  0  0  0  0  0  0  0999 V2000
   33.4743  -13.0659   36.6468 C   0  0  0  0  0  0  0  0  0  0  0  0
   34.6266  -12.4764   37.0711 C   0  0  0  0  0  0  0  0  0  0  0  0
   35.8251  -13.1713   37.1891 C   0  0  0  0  0  0  0  0  0  0  0  0
   35.8410  -14.5083   36.8622 C   0  0  0  0  0  0  0  0  0  0  0  0
   37.0060  -15.2085   36.9789 N   0  0  0  0  0  0  0  0  0  0  0  0
   37.0965  -16.5048   36.6885 C   0  0  0  0  0  0  0  0  0  0  0  0
   35.9673  -17.1899   36.2456 C   0  0  0  0  0  0  0  0  0  0  0  0
   34.7500  -16.5375   36.1026 C   0  0  0  0  0  0  0  0  0  0  0  0
   34.7013  -15.1802   36.4202 C   0  0  0  0  0  0  0  0  0  0  0  0
   33.5685  -14.4332   36.3316 C   0  0  0  0  0  0  0  0  0  0  0  0
   32.2311  -12.4193   36.4887 N   0  0  0  0  0  0  0  0  0  0  0  0
   32.0489  -12.0529   35.4562 H   0  0  0  0  0  0  0  0  0  0  0  0
   31.1686  -12.1437   37.3631 C   0  0  0  0  0  0  0  0  0  0  0  0
   29.3463  -10.5585   37.9812 C   0  0  0  0  0  0  0  0  0  0  0  0
   30.6188  -10.7652   37.1638 C   0  0  0  0  0  0  0  0  0  0  0  0
   31.5980   -9.6977   37.4805 C   0  0  0  0  0  0  0  0  0  0  0  0
   31.3267  -12.4679   38.8136 C   0  0  0  0  0  0  0  0  0  0  0  0
   30.6246  -13.6301   39.1509 O   0  0  0  0  0  0  0  0  0  0  0  0
   31.2555  -14.2753   39.5460 H   0  0  0  0  0  0  0  0  0  0  0  0
   36.0577  -18.5730   35.9948 N   0  0  0  0  0  0  0  0  0  0  0  0
   35.1971  -19.1341   35.9740 H   0  0  0  0  0  0  0  0  0  0  0  0
   37.3145  -19.2377   35.7725 C   0  0  0  0  0  0  0  0  0  0  0  0
   37.3860  -19.5191   34.2821 C   0  0  0  0  0  0  0  0  0  0  0  0
   38.7309  -20.0659   33.8562 C   0  0  0  0  0  0  0  0  0  0  0  0
   38.9906  -21.2729   34.6984 C   0  0  0  0  0  0  0  0  0  0  0  0
   39.0265  -20.8754   36.1708 C   0  0  0  0  0  0  0  0  0  0  0  0
   37.5320  -20.4983   36.5383 C   0  0  0  0  0  0  0  0  0  0  0  0
   40.2039  -22.0537   34.3200 C   0  0  0  0  0  0  0  0  0  0  0  0
   41.2434  -21.2642   33.6334 C   0  0  0  0  0  0  0  0  0  0  0  0
   41.4627  -21.4067   32.2136 N   0  0  0  0  0  0  0  0  0  0  0  0
   41.9843  -20.4449   34.2017 O   0  0  0  0  0  0  0  0  0  0  0  0
   41.5703  -22.3535   31.7968 H   0  0  0  0  0  0  0  0  0  0  0  0
   41.5062  -20.5531   31.6523 H   0  0  0  0  0  0  0  0  0  0  0  0
   37.4913  -20.2611   37.8782 O   0  0  0  0  0  0  0  0  0  0  0  0
   36.6771  -20.9848   38.6723 C   0  0  0  0  0  0  0  0  0  0  0  0
   37.2268  -21.6773   39.8584 C   0  0  0  0  0  0  0  0  0  0  0  0
   36.0961  -22.0990   37.7727 C   0  0  0  0  0  0  0  0  0  0  0  0
   35.4327  -20.2056   39.1134 C   0  0  0  0  0  0  0  0  0  0  0  0
   33.5960  -17.1616   35.6616 O   0  0  0  0  0  0  0  0  0  0  0  0
   33.2646  -17.4805   34.3480 C   0  0  0  0  0  0  0  0  0  0  0  0
   34.3513  -17.9865   33.6040 F   0  0  0  0  0  0  0  0  0  0  0  0
   32.2062  -18.3571   34.2500 F   0  0  0  0  0  0  0  0  0  0  0  0
 14 15  1  0  0  0
 15 16  1  0  0  0
 15 13  1  0  0  0
 13 17  1  0  0  0
 17 18  1  0  0  0
 13 11  1  0  0  0
 11  1  1  0  0  0
  1  2  2  0  0  0
  2  3  1  0  0  0
  3  4  2  0  0  0
  4  5  1  0  0  0
  5  6  2  0  0  0
  6  7  1  0  0  0
  7 20  1  0  0  0
 20 22  1  0  0  0
 22 23  1  0  0  0
 23 24  1  0  0  0
 24 25  1  0  0  0
 25 28  1  0  0  0
 28 29  1  0  0  0
 29 30  1  0  0  0
 29 31  2  0  0  0
 25 26  1  0  0  0
 26 27  1  0  0  0
 27 34  1  0  0  0
 34 35  1  0  0  0
 35 36  1  0  0  0
 35 37  1  0  0  0
 35 38  1  0  0  0
  7  8  2  0  0  0
  8 39  1  0  0  0
 39 40  1  0  0  0
 40 41  1  0  0  0
 40 42  1  0  0  0
  8  9  1  0  0  0
  9 10  2  0  0  0
 10  1  1  0  0  0
  9  4  1  0  0  0
 27 22  1  0  0  0
 18 19  1  0  0  0
 11 12  1  0  0  0
 20 21  1  0  0  0
 30 32  1  0  0  0
 30 33  1  0  0  0
M  END
> <minimizedAffinity>
-8.16573

> <CNNscore>
0.3984548151

> <CNNaffinity>
6.5389938354

> <CNN_VS>
2.6054935455

> <CNNaffinity_variance>
0.3683055043

$$$$
[H]OC([H])([H])[C@]([H])(N([H])c1c([H])c([H])c2nc([H])c(N([H])[C@]3([H])C([H])([H])C([H])([H])[C@@]([H])(C([H])([H])C(=O)N([H])[H])C([H])([H])C3([H])OC(C([H])([H])[H])(C([H])([H])[H])C([H])([H])[H])c(OC([H])(F)F)c2c1[H])C([H])(C([H])([H])[H])C([H])([H])[H]


 42 44  0  0  0  0  0  0  0  0999 V2000
   33.7774  -11.4468   37.0911 C   0  0  0  0  0  0  0  0  0  0  0  0
   32.5646  -11.9929   36.7975 C   0  0  0  0  0  0  0  0  0  0  0  0
   32.4177  -13.3085   36.3725 C   0  0  0  0  0  0  0  0  0  0  0  0
   33.5472  -14.0849   36.2454 C   0  0  0  0  0  0  0  0  0  0  0  0
   33.4237  -15.3760   35.8222 N   0  0  0  0  0  0  0  0  0  0  0  0
   34.4705  -16.1842   35.6686 C   0  0  0  0  0  0  0  0  0  0  0  0
   35.7507  -15.7106   35.9470 C   0  0  0  0  0  0  0  0  0  0  0  0
   35.9476  -14.4072   36.3833 C   0  0  0  0  0  0  0  0  0  0  0  0
   34.8225  -13.5956   36.5280 C   0  0  0  0  0  0  0  0  0  0  0  0
   34.8844  -12.3004   36.9375 C   0  0  0  0  0  0  0  0  0  0  0  0
   33.9969  -10.1287   37.5418 N   0  0  0  0  0  0  0  0  0  0  0  0
   34.0155  -10.0345   38.6483 H   0  0  0  0  0  0  0  0  0  0  0  0
   34.2025   -8.9059   36.8845 C   0  0  0  0  0  0  0  0  0  0  0  0
   32.6102   -7.8850   35.2602 C   0  0  0  0  0  0  0  0  0  0  0  0
   32.9319   -8.1282   36.7325 C   0  0  0  0  0  0  0  0  0  0  0  0
   31.7741   -8.7705   37.4000 C   0  0  0  0  0  0  0  0  0  0  0  0
   35.0100   -8.8907   35.6269 C   0  0  0  0  0  0  0  0  0  0  0  0
   35.9996   -7.9029   35.6738 O   0  0  0  0  0  0  0  0  0  0  0  0
   36.8762   -8.3289   35.5302 H   0  0  0  0  0  0  0  0  0  0  0  0
   36.8575  -16.5537   35.7278 N   0  0  0  0  0  0  0  0  0  0  0  0
   37.7156  -16.1570   35.3250 H   0  0  0  0  0  0  0  0  0  0  0  0
   36.8330  -17.9583   36.0401 C   0  0  0  0  0  0  0  0  0  0  0  0
   36.3394  -18.0643   37.4721 C   0  0  0  0  0  0  0  0  0  0  0  0
   36.0929  -19.4947   37.8990 C   0  0  0  0  0  0  0  0  0  0  0  0
   37.3645  -20.2412   37.6557 C   0  0  0  0  0  0  0  0  0  0  0  0
   37.7172  -20.1882   36.1725 C   0  0  0  0  0  0  0  0  0  0  0  0
   38.1277  -18.6832   35.8942 C   0  0  0  0  0  0  0  0  0  0  0  0
   37.3768  -21.6437   38.1639 C   0  0  0  0  0  0  0  0  0  0  0  0
   37.9271  -21.7909   39.5244 C   0  0  0  0  0  0  0  0  0  0  0  0
   37.4555  -22.8342   40.4037 N   0  0  0  0  0  0  0  0  0  0  0  0
   38.8070  -21.0559   40.0027 O   0  0  0  0  0  0  0  0  0  0  0  0
   36.4344  -22.9729   40.5448 H   0  0  0  0  0  0  0  0  0  0  0  0
   38.1565  -23.4151   40.8692 H   0  0  0  0  0  0  0  0  0  0  0  0
   38.5758  -18.6157   34.6106 O   0  0  0  0  0  0  0  0  0  0  0  0
   39.7854  -19.1138   34.2856 C   0  0  0  0  0  0  0  0  0  0  0  0
   39.9180  -20.5340   33.8929 C   0  0  0  0  0  0  0  0  0  0  0  0
   40.6600  -18.9487   35.5491 C   0  0  0  0  0  0  0  0  0  0  0  0
   40.5158  -18.2633   33.2399 C   0  0  0  0  0  0  0  0  0  0  0  0
   37.1927  -13.8814   36.6815 O   0  0  0  0  0  0  0  0  0  0  0  0
   37.9563  -14.1271   37.8190 C   0  0  0  0  0  0  0  0  0  0  0  0
   38.6546  -12.9911   38.2800 F   0  0  0  0  0  0  0  0  0  0  0  0
   37.2281  -14.6599   38.8601 F   0  0  0  0  0  0  0  0  0  0  0  0
 14 15  1  0  0  0
 15 16  1  0  0  0
 15 13  1  0  0  0
 13 17  1  0  0  0
 17 18  1  0  0  0
 13 11  1  0  0  0
 11  1  1  0  0  0
  1  2  2  0  0  0
  2  3  1  0  0  0
  3  4  2  0  0  0
  4  5  1  0  0  0
  5  6  2  0  0  0
  6  7  1  0  0  0
  7 20  1  0  0  0
 20 22  1  0  0  0
 22 23  1  0  0  0
 23 24  1  0  0  0
 24 25  1  0  0  0
 25 28  1  0  0  0
 28 29  1  0  0  0
 29 30  1  0  0  0
 29 31  2  0  0  0
 25 26  1  0  0  0
 26 27  1  0  0  0
 27 34  1  0  0  0
 34 35  1  0  0  0
 35 36  1  0  0  0
 35 37  1  0  0  0
 35 38  1  0  0  0
  7  8  2  0  0  0
  8 39  1  0  0  0
 39 40  1  0  0  0
 40 41  1  0  0  0
 40 42  1  0  0  0
  8  9  1  0  0  0
  9 10  2  0  0  0
 10  1  1  0  0  0
  9  4  1  0  0  0
 27 22  1  0  0  0
 18 19  1  0  0  0
 11 12  1  0  0  0
 20 21  1  0  0  0
 30 32  1  0  0  0
 30 33  1  0  0  0
M  END
> <minimizedAffinity>
-7.37792

> <CNNscore>
0.3946273029

> <CNNaffinity>
6.9060835838

> <CNN_VS>
2.7253291607

> <CNNaffinity_variance>
0.1670485288

$$$$
[H]OC([H])([H])[C@]([H])(N([H])c1c([H])c([H])c2nc([H])c(N([H])[C@]3([H])C([H])([H])C([H])([H])[C@@]([H])(C([H])([H])C(=O)N([H])[H])C([H])([H])C3([H])OC(C([H])([H])[H])(C([H])([H])[H])C([H])([H])[H])c(OC([H])(F)F)c2c1[H])C([H])(C([H])([H])[H])C([H])([H])[H]


 42 44  0  0  0  0  0  0  0  0999 V2000
   33.5622  -13.1379   36.6564 C   0  0  0  0  0  0  0  0  0  0  0  0
   34.7370  -12.5752   37.0545 C   0  0  0  0  0  0  0  0  0  0  0  0
   35.9127  -13.3061   37.1840 C   0  0  0  0  0  0  0  0  0  0  0  0
   35.8813  -14.6519   36.8967 C   0  0  0  0  0  0  0  0  0  0  0  0
   37.0232  -15.3871   37.0253 N   0  0  0  0  0  0  0  0  0  0  0  0
   37.0680  -16.6936   36.7727 C   0  0  0  0  0  0  0  0  0  0  0  0
   35.9129  -17.3532   36.3588 C   0  0  0  0  0  0  0  0  0  0  0  0
   34.7169  -16.6648   36.2056 C   0  0  0  0  0  0  0  0  0  0  0  0
   34.7161  -15.2978   36.4833 C   0  0  0  0  0  0  0  0  0  0  0  0
   33.6082  -14.5162   36.3811 C   0  0  0  0  0  0  0  0  0  0  0  0
   32.3400  -12.4548   36.4885 N   0  0  0  0  0  0  0  0  0  0  0  0
   32.1836  -12.0703   35.4583 H   0  0  0  0  0  0  0  0  0  0  0  0
   31.2725  -12.1608   37.3508 C   0  0  0  0  0  0  0  0  0  0  0  0
   29.4355  -10.5675   37.9010 C   0  0  0  0  0  0  0  0  0  0  0  0
   30.7388  -10.7786   37.1346 C   0  0  0  0  0  0  0  0  0  0  0  0
   31.7103   -9.7177   37.4943 C   0  0  0  0  0  0  0  0  0  0  0  0
   31.4140  -12.4741   38.8054 C   0  0  0  0  0  0  0  0  0  0  0  0
   30.7067  -13.6327   39.1438 O   0  0  0  0  0  0  0  0  0  0  0  0
   31.3323  -14.2756   39.5508 H   0  0  0  0  0  0  0  0  0  0  0  0
   35.9551  -18.7453   36.1483 N   0  0  0  0  0  0  0  0  0  0  0  0
   36.0370  -19.1031   35.1885 H   0  0  0  0  0  0  0  0  0  0  0  0
   35.8800  -19.6929   37.2286 C   0  0  0  0  0  0  0  0  0  0  0  0
   37.2990  -20.1801   37.4629 C   0  0  0  0  0  0  0  0  0  0  0  0
   37.4181  -21.0604   38.6876 C   0  0  0  0  0  0  0  0  0  0  0  0
   36.4330  -22.1711   38.5163 C   0  0  0  0  0  0  0  0  0  0  0  0
   35.0229  -21.5978   38.4155 C   0  0  0  0  0  0  0  0  0  0  0  0
   34.9723  -20.8565   37.0159 C   0  0  0  0  0  0  0  0  0  0  0  0
   36.5077  -23.2424   39.5516 C   0  0  0  0  0  0  0  0  0  0  0  0
   36.4604  -24.6134   39.0100 C   0  0  0  0  0  0  0  0  0  0  0  0
   36.4665  -25.7570   39.8911 N   0  0  0  0  0  0  0  0  0  0  0  0
   36.4131  -24.8819   37.7980 O   0  0  0  0  0  0  0  0  0  0  0  0
   37.1761  -25.8258   40.6484 H   0  0  0  0  0  0  0  0  0  0  0  0
   35.7575  -26.4777   39.7379 H   0  0  0  0  0  0  0  0  0  0  0  0
   33.6909  -20.4390   36.8241 O   0  0  0  0  0  0  0  0  0  0  0  0
   32.8164  -21.2149   36.1529 C   0  0  0  0  0  0  0  0  0  0  0  0
   31.3824  -21.1959   36.5160 C   0  0  0  0  0  0  0  0  0  0  0  0
   33.2842  -22.6697   36.3833 C   0  0  0  0  0  0  0  0  0  0  0  0
   32.9221  -21.0492   34.6324 C   0  0  0  0  0  0  0  0  0  0  0  0
   33.5391  -17.2624   35.7919 O   0  0  0  0  0  0  0  0  0  0  0  0
   33.1148  -17.4614   34.4813 C   0  0  0  0  0  0  0  0  0  0  0  0
   34.0978  -18.0509   33.6586 F   0  0  0  0  0  0  0  0  0  0  0  0
   31.9529  -18.1960   34.3898 F   0  0  0  0  0  0  0  0  0  0  0  0
 14 15  1  0  0  0
 15 16  1  0  0  0
 15 13  1  0  0  0
 13 17  1  0  0  0
 17 18  1  0  0  0
 13 11  1  0  0  0
 11  1  1  0  0  0
  1  2  2  0  0  0
  2  3  1  0  0  0
  3  4  2  0  0  0
  4  5  1  0  0  0
  5  6  2  0  0  0
  6  7  1  0  0  0
  7 20  1  0  0  0
 20 22  1  0  0  0
 22 23  1  0  0  0
 23 24  1  0  0  0
 24 25  1  0  0  0
 25 28  1  0  0  0
 28 29  1  0  0  0
 29 30  1  0  0  0
 29 31  2  0  0  0
 25 26  1  0  0  0
 26 27  1  0  0  0
 27 34  1  0  0  0
 34 35  1  0  0  0
 35 36  1  0  0  0
 35 37  1  0  0  0
 35 38  1  0  0  0
  7  8  2  0  0  0
  8 39  1  0  0  0
 39 40  1  0  0  0
 40 41  1  0  0  0
 40 42  1  0  0  0
  8  9  1  0  0  0
  9 10  2  0  0  0
 10  1  1  0  0  0
  9  4  1  0  0  0
 27 22  1  0  0  0
 18 19  1  0  0  0
 11 12  1  0  0  0
 20 21  1  0  0  0
 30 32  1  0  0  0
 30 33  1  0  0  0
M  END
> <minimizedAffinity>
-7.18407

> <CNNscore>
0.3824512064

> <CNNaffinity>
6.5963354111

> <CNN_VS>
2.5227763653

> <CNNaffinity_variance>
0.0222426318

$$$$
[H]OC([H])([H])[C@]([H])(N([H])c1c([H])c([H])c2nc([H])c(N([H])[C@]3([H])C([H])([H])C([H])([H])[C@@]([H])(C([H])([H])C(=O)N([H])[H])C([H])([H])C3([H])OC(C([H])([H])[H])(C([H])([H])[H])C([H])([H])[H])c(OC([H])(F)F)c2c1[H])C([H])(C([H])([H])[H])C([H])([H])[H]


 42 44  0  0  0  0  0  0  0  0999 V2000
   30.0705  -22.4341   37.1308 C   0  0  0  0  0  0  0  0  0  0  0  0
   29.1211  -21.7612   36.4229 C   0  0  0  0  0  0  0  0  0  0  0  0
   29.4163  -20.6516   35.6388 C   0  0  0  0  0  0  0  0  0  0  0  0
   30.7223  -20.2210   35.5799 C   0  0  0  0  0  0  0  0  0  0  0  0
   31.0300  -19.1293   34.8219 N   0  0  0  0  0  0  0  0  0  0  0  0
   32.2684  -18.6505   34.7223 C   0  0  0  0  0  0  0  0  0  0  0  0
   33.3044  -19.2766   35.4118 C   0  0  0  0  0  0  0  0  0  0  0  0
   33.0613  -20.3935   36.2000 C   0  0  0  0  0  0  0  0  0  0  0  0
   31.7487  -20.8590   36.2766 C   0  0  0  0  0  0  0  0  0  0  0  0
   31.3810  -21.9357   37.0213 C   0  0  0  0  0  0  0  0  0  0  0  0
   29.8447  -23.5734   37.9306 N   0  0  0  0  0  0  0  0  0  0  0  0
   29.2577  -24.3658   37.4197 H   0  0  0  0  0  0  0  0  0  0  0  0
   30.2105  -23.9210   39.2401 C   0  0  0  0  0  0  0  0  0  0  0  0
   31.1882  -25.7942   37.9168 C   0  0  0  0  0  0  0  0  0  0  0  0
   31.1424  -25.0927   39.2718 C   0  0  0  0  0  0  0  0  0  0  0  0
   32.5162  -24.7312   39.6967 C   0  0  0  0  0  0  0  0  0  0  0  0
   29.1426  -24.0399   40.2790 C   0  0  0  0  0  0  0  0  0  0  0  0
   27.9518  -24.5236   39.7264 O   0  0  0  0  0  0  0  0  0  0  0  0
   27.6886  -25.3396   40.2115 H   0  0  0  0  0  0  0  0  0  0  0  0
   34.6012  -18.7306   35.3465 N   0  0  0  0  0  0  0  0  0  0  0  0
   35.2972  -19.1689   34.7306 H   0  0  0  0  0  0  0  0  0  0  0  0
   34.9956  -17.5814   36.1176 C   0  0  0  0  0  0  0  0  0  0  0  0
   34.2408  -16.4007   35.5330 C   0  0  0  0  0  0  0  0  0  0  0  0
   34.4157  -15.1369   36.3461 C   0  0  0  0  0  0  0  0  0  0  0  0
   35.8868  -14.8994   36.4604 C   0  0  0  0  0  0  0  0  0  0  0  0
   36.5449  -16.0777   37.1714 C   0  0  0  0  0  0  0  0  0  0  0  0
   36.4565  -17.2850   36.1488 C   0  0  0  0  0  0  0  0  0  0  0  0
   36.2666  -13.6045   37.0963 C   0  0  0  0  0  0  0  0  0  0  0  0
   35.3251  -12.5002   36.8324 C   0  0  0  0  0  0  0  0  0  0  0  0
   35.5000  -11.6370   35.6886 N   0  0  0  0  0  0  0  0  0  0  0  0
   34.3440  -12.2361   37.5472 O   0  0  0  0  0  0  0  0  0  0  0  0
   36.4281  -11.2076   35.4986 H   0  0  0  0  0  0  0  0  0  0  0  0
   34.6876  -11.4723   35.0899 H   0  0  0  0  0  0  0  0  0  0  0  0
   37.1478  -18.3258   36.6892 O   0  0  0  0  0  0  0  0  0  0  0  0
   38.0715  -18.9810   35.9581 C   0  0  0  0  0  0  0  0  0  0  0  0
   38.2010  -18.7028   34.5109 C   0  0  0  0  0  0  0  0  0  0  0  0
   37.7034  -20.4784   36.0621 C   0  0  0  0  0  0  0  0  0  0  0  0
   39.4719  -18.9202   36.5791 C   0  0  0  0  0  0  0  0  0  0  0  0
   34.0486  -21.0619   36.9029 O   0  0  0  0  0  0  0  0  0  0  0  0
   34.4474  -20.8288   38.2159 C   0  0  0  0  0  0  0  0  0  0  0  0
   34.8518  -19.4976   38.4496 F   0  0  0  0  0  0  0  0  0  0  0  0
   33.4929  -21.1782   39.1460 F   0  0  0  0  0  0  0  0  0  0  0  0
 14 15  1  0  0  0
 15 16  1  0  0  0
 15 13  1  0  0  0
 13 17  1  0  0  0
 17 18  1  0  0  0
 13 11  1  0  0  0
 11  1  1  0  0  0
  1  2  2  0  0  0
  2  3  1  0  0  0
  3  4  2  0  0  0
  4  5  1  0  0  0
  5  6  2  0  0  0
  6  7  1  0  0  0
  7 20  1  0  0  0
 20 22  1  0  0  0
 22 23  1  0  0  0
 23 24  1  0  0  0
 24 25  1  0  0  0
 25 28  1  0  0  0
 28 29  1  0  0  0
 29 30  1  0  0  0
 29 31  2  0  0  0
 25 26  1  0  0  0
 26 27  1  0  0  0
 27 34  1  0  0  0
 34 35  1  0  0  0
 35 36  1  0  0  0
 35 37  1  0  0  0
 35 38  1  0  0  0
  7  8  2  0  0  0
  8 39  1  0  0  0
 39 40  1  0  0  0
 40 41  1  0  0  0
 40 42  1  0  0  0
  8  9  1  0  0  0
  9 10  2  0  0  0
 10  1  1  0  0  0
  9  4  1  0  0  0
 27 22  1  0  0  0
 18 19  1  0  0  0
 11 12  1  0  0  0
 20 21  1  0  0  0
 30 32  1  0  0  0
 30 33  1  0  0  0
M  END
> <minimizedAffinity>
-6.46740

> <CNNscore>
0.3437691331

> <CNNaffinity>
6.1587476730

> <CNN_VS>
2.1171872616

> <CNNaffinity_variance>
0.2544183135

$$$$
[H]OC([H])([H])[C@]([H])(N([H])c1c([H])c([H])c2nc([H])c(N([H])[C@]3([H])C([H])([H])C([H])([H])[C@@]([H])(C([H])([H])C(=O)N([H])[H])C([H])([H])C3([H])OC(C([H])([H])[H])(C([H])([H])[H])C([H])([H])[H])c(OC([H])(F)F)c2c1[H])C([H])(C([H])([H])[H])C([H])([H])[H]


 42 44  0  0  0  0  0  0  0  0999 V2000
   34.0475  -12.9408   36.7552 C   0  0  0  0  0  0  0  0  0  0  0  0
   33.0966  -13.5481   35.9922 C   0  0  0  0  0  0  0  0  0  0  0  0
   33.2447  -14.8384   35.4957 C   0  0  0  0  0  0  0  0  0  0  0  0
   34.4012  -15.5241   35.7910 C   0  0  0  0  0  0  0  0  0  0  0  0
   34.5679  -16.7884   35.3063 N   0  0  0  0  0  0  0  0  0  0  0  0
   35.6616  -17.5097   35.5437 C   0  0  0  0  0  0  0  0  0  0  0  0
   36.6868  -16.9688   36.3163 C   0  0  0  0  0  0  0  0  0  0  0  0
   36.5814  -15.6880   36.8422 C   0  0  0  0  0  0  0  0  0  0  0  0
   35.4189  -14.9682   36.5663 C   0  0  0  0  0  0  0  0  0  0  0  0
   35.2005  -13.7032   37.0144 C   0  0  0  0  0  0  0  0  0  0  0  0
   33.9559  -11.6449   37.3036 N   0  0  0  0  0  0  0  0  0  0  0  0
   34.9235  -11.0999   37.3203 H   0  0  0  0  0  0  0  0  0  0  0  0
   32.8947  -10.8930   37.8308 C   0  0  0  0  0  0  0  0  0  0  0  0
   31.2232  -12.4447   38.8378 C   0  0  0  0  0  0  0  0  0  0  0  0
   31.5737  -11.5708   37.6363 C   0  0  0  0  0  0  0  0  0  0  0  0
   30.4674  -10.6210   37.3665 C   0  0  0  0  0  0  0  0  0  0  0  0
   32.8165   -9.4349   37.5118 C   0  0  0  0  0  0  0  0  0  0  0  0
   33.9464   -9.0114   36.8037 O   0  0  0  0  0  0  0  0  0  0  0  0
   33.6524   -8.6081   35.9543 H   0  0  0  0  0  0  0  0  0  0  0  0
   37.8640  -17.7161   36.5156 N   0  0  0  0  0  0  0  0  0  0  0  0
   38.7467  -17.2202   36.6911 H   0  0  0  0  0  0  0  0  0  0  0  0
   37.8824  -19.1545   36.4756 C   0  0  0  0  0  0  0  0  0  0  0  0
   37.1368  -19.6213   37.7132 C   0  0  0  0  0  0  0  0  0  0  0  0
   36.9180  -21.1183   37.7316 C   0  0  0  0  0  0  0  0  0  0  0  0
   38.2632  -21.7513   37.5786 C   0  0  0  0  0  0  0  0  0  0  0  0
   38.8842  -21.3266   36.2516 C   0  0  0  0  0  0  0  0  0  0  0  0
   39.2302  -19.7900   36.4249 C   0  0  0  0  0  0  0  0  0  0  0  0
   38.2806  -23.2349   37.7328 C   0  0  0  0  0  0  0  0  0  0  0  0
   36.9969  -23.8918   37.4229 C   0  0  0  0  0  0  0  0  0  0  0  0
   36.6172  -24.1655   36.0572 N   0  0  0  0  0  0  0  0  0  0  0  0
   36.1722  -24.2482   38.2808 O   0  0  0  0  0  0  0  0  0  0  0  0
   36.6782  -23.4143   35.3403 H   0  0  0  0  0  0  0  0  0  0  0  0
   36.2936  -25.1096   35.8348 H   0  0  0  0  0  0  0  0  0  0  0  0
   39.9061  -19.3981   35.3101 O   0  0  0  0  0  0  0  0  0  0  0  0
   41.2050  -19.0468   35.3909 C   0  0  0  0  0  0  0  0  0  0  0  0
   41.7865  -18.1318   34.3843 C   0  0  0  0  0  0  0  0  0  0  0  0
   42.0040  -20.3637   35.2663 C   0  0  0  0  0  0  0  0  0  0  0  0
   41.5944  -18.5305   36.7810 C   0  0  0  0  0  0  0  0  0  0  0  0
   37.5620  -15.0991   37.6214 O   0  0  0  0  0  0  0  0  0  0  0  0
   37.8636  -13.7429   37.7065 C   0  0  0  0  0  0  0  0  0  0  0  0
   38.6150  -13.4080   38.8526 F   0  0  0  0  0  0  0  0  0  0  0  0
   38.5067  -13.2561   36.5896 F   0  0  0  0  0  0  0  0  0  0  0  0
 14 15  1  0  0  0
 15 16  1  0  0  0
 15 13  1  0  0  0
 13 17  1  0  0  0
 17 18  1  0  0  0
 13 11  1  0  0  0
 11  1  1  0  0  0
  1  2  2  0  0  0
  2  3  1  0  0  0
  3  4  2  0  0  0
  4  5  1  0  0  0
  5  6  2  0  0  0
  6  7  1  0  0  0
  7 20  1  0  0  0
 20 22  1  0  0  0
 22 23  1  0  0  0
 23 24  1  0  0  0
 24 25  1  0  0  0
 25 28  1  0  0  0
 28 29  1  0  0  0
 29 30  1  0  0  0
 29 31  2  0  0  0
 25 26  1  0  0  0
 26 27  1  0  0  0
 27 34  1  0  0  0
 34 35  1  0  0  0
 35 36  1  0  0  0
 35 37  1  0  0  0
 35 38  1  0  0  0
  7  8  2  0  0  0
  8 39  1  0  0  0
 39 40  1  0  0  0
 40 41  1  0  0  0
 40 42  1  0  0  0
  8  9  1  0  0  0
  9 10  2  0  0  0
 10  1  1  0  0  0
  9  4  1  0  0  0
 27 22  1  0  0  0
 18 19  1  0  0  0
 11 12  1  0  0  0
 20 21  1  0  0  0
 30 32  1  0  0  0
 30 33  1  0  0  0
M  END
> <minimizedAffinity>
-6.93113

> <CNNscore>
0.3428962529

> <CNNaffinity>
6.4916648865

> <CNN_VS>
2.2259676456

> <CNNaffinity_variance>
0.0793034956

$$$$
[H]OC([H])([H])[C@]([H])(N([H])c1c([H])c([H])c2nc([H])c(N([H])[C@]3([H])C([H])([H])C([H])([H])[C@@]([H])(C([H])([H])C(=O)N([H])[H])C([H])([H])C3([H])OC(C([H])([H])[H])(C([H])([H])[H])C([H])([H])[H])c(OC([H])(F)F)c2c1[H])C([H])(C([H])([H])[H])C([H])([H])[H]


 42 44  0  0  0  0  0  0  0  0999 V2000
   33.1558  -12.9167   36.9302 C   0  0  0  0  0  0  0  0  0  0  0  0
   34.2513  -12.1542   37.2021 C   0  0  0  0  0  0  0  0  0  0  0  0
   35.5445  -12.6646   37.1798 C   0  0  0  0  0  0  0  0  0  0  0  0
   35.7176  -13.9944   36.8697 C   0  0  0  0  0  0  0  0  0  0  0  0
   36.9785  -14.5150   36.8504 N   0  0  0  0  0  0  0  0  0  0  0  0
   37.2232  -15.7927   36.5667 C   0  0  0  0  0  0  0  0  0  0  0  0
   36.1622  -16.6469   36.2748 C   0  0  0  0  0  0  0  0  0  0  0  0
   34.8539  -16.1820   36.2750 C   0  0  0  0  0  0  0  0  0  0  0  0
   34.6444  -14.8370   36.5797 C   0  0  0  0  0  0  0  0  0  0  0  0
   33.4117  -14.2648   36.6224 C   0  0  0  0  0  0  0  0  0  0  0  0
   31.8211  -12.4616   36.9187 N   0  0  0  0  0  0  0  0  0  0  0  0
   31.4903  -12.0796   35.9297 H   0  0  0  0  0  0  0  0  0  0  0  0
   30.8164  -12.3934   37.8962 C   0  0  0  0  0  0  0  0  0  0  0  0
   30.9779  -10.0264   37.1301 C   0  0  0  0  0  0  0  0  0  0  0  0
   30.1983  -11.0318   37.9738 C   0  0  0  0  0  0  0  0  0  0  0  0
   28.7695  -11.0188   37.5776 C   0  0  0  0  0  0  0  0  0  0  0  0
   31.0949  -12.9489   39.2555 C   0  0  0  0  0  0  0  0  0  0  0  0
   30.1511  -13.9199   39.6075 O   0  0  0  0  0  0  0  0  0  0  0  0
   30.6250  -14.7578   39.8169 H   0  0  0  0  0  0  0  0  0  0  0  0
   36.4245  -18.0092   36.0315 N   0  0  0  0  0  0  0  0  0  0  0  0
   35.9614  -18.4735   35.2403 H   0  0  0  0  0  0  0  0  0  0  0  0
   37.3141  -18.7843   36.8553 C   0  0  0  0  0  0  0  0  0  0  0  0
   38.5984  -18.9398   36.0604 C   0  0  0  0  0  0  0  0  0  0  0  0
   39.7048  -19.5897   36.8621 C   0  0  0  0  0  0  0  0  0  0  0  0
   39.1632  -20.8871   37.3692 C   0  0  0  0  0  0  0  0  0  0  0  0
   37.9518  -20.6268   38.2590 C   0  0  0  0  0  0  0  0  0  0  0  0
   36.8134  -20.1235   37.2783 C   0  0  0  0  0  0  0  0  0  0  0  0
   40.1603  -21.7587   38.0557 C   0  0  0  0  0  0  0  0  0  0  0  0
   40.4253  -21.3883   39.4585 C   0  0  0  0  0  0  0  0  0  0  0  0
   39.9922  -22.2383   40.5421 N   0  0  0  0  0  0  0  0  0  0  0  0
   41.0202  -20.3543   39.8051 O   0  0  0  0  0  0  0  0  0  0  0  0
   39.0124  -22.5862   40.5699 H   0  0  0  0  0  0  0  0  0  0  0  0
   40.6780  -22.4753   41.2624 H   0  0  0  0  0  0  0  0  0  0  0  0
   35.6720  -20.0019   38.0102 O   0  0  0  0  0  0  0  0  0  0  0  0
   34.6350  -20.8359   37.7958 C   0  0  0  0  0  0  0  0  0  0  0  0
   33.4626  -20.3726   37.0215 C   0  0  0  0  0  0  0  0  0  0  0  0
   34.0914  -21.1977   39.1965 C   0  0  0  0  0  0  0  0  0  0  0  0
   35.0715  -22.1916   37.2282 C   0  0  0  0  0  0  0  0  0  0  0  0
   33.7598  -16.9793   35.9872 O   0  0  0  0  0  0  0  0  0  0  0  0
   33.2860  -17.3299   34.7263 C   0  0  0  0  0  0  0  0  0  0  0  0
   34.2824  -17.8660   33.8835 F   0  0  0  0  0  0  0  0  0  0  0  0
   32.2174  -18.1986   34.7674 F   0  0  0  0  0  0  0  0  0  0  0  0
 14 15  1  0  0  0
 15 16  1  0  0  0
 15 13  1  0  0  0
 13 17  1  0  0  0
 17 18  1  0  0  0
 13 11  1  0  0  0
 11  1  1  0  0  0
  1  2  2  0  0  0
  2  3  1  0  0  0
  3  4  2  0  0  0
  4  5  1  0  0  0
  5  6  2  0  0  0
  6  7  1  0  0  0
  7 20  1  0  0  0
 20 22  1  0  0  0
 22 23  1  0  0  0
 23 24  1  0  0  0
 24 25  1  0  0  0
 25 28  1  0  0  0
 28 29  1  0  0  0
 29 30  1  0  0  0
 29 31  2  0  0  0
 25 26  1  0  0  0
 26 27  1  0  0  0
 27 34  1  0  0  0
 34 35  1  0  0  0
 35 36  1  0  0  0
 35 37  1  0  0  0
 35 38  1  0  0  0
  7  8  2  0  0  0
  8 39  1  0  0  0
 39 40  1  0  0  0
 40 41  1  0  0  0
 40 42  1  0  0  0
  8  9  1  0  0  0
  9 10  2  0  0  0
 10  1  1  0  0  0
  9  4  1  0  0  0
 27 22  1  0  0  0
 18 19  1  0  0  0
 11 12  1  0  0  0
 20 21  1  0  0  0
 30 32  1  0  0  0
 30 33  1  0  0  0
M  END
> <minimizedAffinity>
-7.00884

> <CNNscore>
0.3348616362

> <CNNaffinity>
6.5052542686

> <CNN_VS>
2.1783599854

> <CNNaffinity_variance>
0.0461585633

$$$$
[H]OC([H])([H])[C@]([H])(N([H])c1c([H])c([H])c2nc([H])c(N([H])[C@]3([H])C([H])([H])C([H])([H])[C@@]([H])(C([H])([H])C(=O)N([H])[H])C([H])([H])C3([H])OC(C([H])([H])[H])(C([H])([H])[H])C([H])([H])[H])c(OC([H])(F)F)c2c1[H])C([H])(C([H])([H])[H])C([H])([H])[H]


 42 44  0  0  0  0  0  0  0  0999 V2000
   34.7302  -16.3421   36.0014 C   0  0  0  0  0  0  0  0  0  0  0  0
   33.5372  -16.6479   35.4194 C   0  0  0  0  0  0  0  0  0  0  0  0
   33.0386  -17.9448   35.3677 C   0  0  0  0  0  0  0  0  0  0  0  0
   33.7855  -18.9556   35.9291 C   0  0  0  0  0  0  0  0  0  0  0  0
   33.3163  -20.2357   35.8813 N   0  0  0  0  0  0  0  0  0  0  0  0
   33.9857  -21.2653   36.3957 C   0  0  0  0  0  0  0  0  0  0  0  0
   35.2156  -21.0459   37.0119 C   0  0  0  0  0  0  0  0  0  0  0  0
   35.7508  -19.7675   37.0969 C   0  0  0  0  0  0  0  0  0  0  0  0
   35.0158  -18.7195   36.5426 C   0  0  0  0  0  0  0  0  0  0  0  0
   35.4359  -17.4263   36.5527 C   0  0  0  0  0  0  0  0  0  0  0  0
   35.2866  -15.0504   36.1035 N   0  0  0  0  0  0  0  0  0  0  0  0
   35.3746  -14.5259   35.1285 H   0  0  0  0  0  0  0  0  0  0  0  0
   35.7506  -14.2822   37.1825 C   0  0  0  0  0  0  0  0  0  0  0  0
   35.0228  -12.0879   36.2491 C   0  0  0  0  0  0  0  0  0  0  0  0
   34.9052  -13.0680   37.4135 C   0  0  0  0  0  0  0  0  0  0  0  0
   33.4785  -13.3910   37.6559 C   0  0  0  0  0  0  0  0  0  0  0  0
   37.2080  -13.9607   37.2639 C   0  0  0  0  0  0  0  0  0  0  0  0
   37.9771  -15.1249   37.3668 O   0  0  0  0  0  0  0  0  0  0  0  0
   38.6269  -15.1391   36.6265 H   0  0  0  0  0  0  0  0  0  0  0  0
   35.9437  -22.1471   37.5031 N   0  0  0  0  0  0  0  0  0  0  0  0
   36.5113  -22.7019   36.8505 H   0  0  0  0  0  0  0  0  0  0  0  0
   35.9189  -22.5339   38.8890 C   0  0  0  0  0  0  0  0  0  0  0  0
   37.3697  -22.6359   39.3254 C   0  0  0  0  0  0  0  0  0  0  0  0
   37.5157  -22.8691   40.8131 C   0  0  0  0  0  0  0  0  0  0  0  0
   36.7142  -24.0880   41.1379 C   0  0  0  0  0  0  0  0  0  0  0  0
   35.2495  -23.8505   40.7838 C   0  0  0  0  0  0  0  0  0  0  0  0
   35.2045  -23.8050   39.2005 C   0  0  0  0  0  0  0  0  0  0  0  0
   36.8582  -24.5797   42.5388 C   0  0  0  0  0  0  0  0  0  0  0  0
   36.0268  -23.8608   43.5224 C   0  0  0  0  0  0  0  0  0  0  0  0
   34.8960  -24.5056   44.1464 N   0  0  0  0  0  0  0  0  0  0  0  0
   36.2270  -22.6874   43.8779 O   0  0  0  0  0  0  0  0  0  0  0  0
   34.1944  -25.0041   43.5624 H   0  0  0  0  0  0  0  0  0  0  0  0
   34.8203  -24.4496   45.1646 H   0  0  0  0  0  0  0  0  0  0  0  0
   33.8959  -23.7244   38.8340 O   0  0  0  0  0  0  0  0  0  0  0  0
   33.2843  -24.7799   38.2605 C   0  0  0  0  0  0  0  0  0  0  0  0
   32.7412  -25.8668   39.1043 C   0  0  0  0  0  0  0  0  0  0  0  0
   34.3511  -25.4450   37.3617 C   0  0  0  0  0  0  0  0  0  0  0  0
   32.1955  -24.3650   37.2640 C   0  0  0  0  0  0  0  0  0  0  0  0
   36.9634  -19.4856   37.7015 O   0  0  0  0  0  0  0  0  0  0  0  0
   38.2295  -19.5974   37.1343 C   0  0  0  0  0  0  0  0  0  0  0  0
   38.7480  -18.3676   36.6768 F   0  0  0  0  0  0  0  0  0  0  0  0
   39.1509  -20.1905   37.9695 F   0  0  0  0  0  0  0  0  0  0  0  0
 14 15  1  0  0  0
 15 16  1  0  0  0
 15 13  1  0  0  0
 13 17  1  0  0  0
 17 18  1  0  0  0
 13 11  1  0  0  0
 11  1  1  0  0  0
  1  2  2  0  0  0
  2  3  1  0  0  0
  3  4  2  0  0  0
  4  5  1  0  0  0
  5  6  2  0  0  0
  6  7  1  0  0  0
  7 20  1  0  0  0
 20 22  1  0  0  0
 22 23  1  0  0  0
 23 24  1  0  0  0
 24 25  1  0  0  0
 25 28  1  0  0  0
 28 29  1  0  0  0
 29 30  1  0  0  0
 29 31  2  0  0  0
 25 26  1  0  0  0
 26 27  1  0  0  0
 27 34  1  0  0  0
 34 35  1  0  0  0
 35 36  1  0  0  0
 35 37  1  0  0  0
 35 38  1  0  0  0
  7  8  2  0  0  0
  8 39  1  0  0  0
 39 40  1  0  0  0
 40 41  1  0  0  0
 40 42  1  0  0  0
  8  9  1  0  0  0
  9 10  2  0  0  0
 10  1  1  0  0  0
  9  4  1  0  0  0
 27 22  1  0  0  0
 18 19  1  0  0  0
 11 12  1  0  0  0
 20 21  1  0  0  0
 30 32  1  0  0  0
 30 33  1  0  0  0
M  END
> <minimizedAffinity>
-4.80471

> <CNNscore>
0.3284044266

> <CNNaffinity>
5.7751016617

> <CNN_VS>
1.8965688944

> <CNNaffinity_variance>
0.0289714038

$$$$
[H]c1nc(N([H])c2nc3c([H])c(N([H])C(=O)C4([H])C([H])([H])C([H])([H])S(=O)(=O)C([H])([H])C4([H])[H])c(C(C([H])([H])[H])(C([H])([H])[H])C([H])([H])[H])c([H])c3s2)c([H])c([H])c1C#N


 35 38  0  0  0  0  0  0  0  0999 V2000
   30.7556  -22.5856   37.2375 C   0  0  0  0  0  0  0  0  0  0  0  0
   30.3272  -21.6105   36.3425 C   0  0  0  0  0  0  0  0  0  0  0  0
   31.1232  -20.5441   35.9473 C   0  0  0  0  0  0  0  0  0  0  0  0
   30.9719  -19.1936   34.9182 S   0  0  0  0  0  0  0  0  0  0  0  0
   32.5450  -18.5167   35.1638 C   0  0  0  0  0  0  0  0  0  0  0  0
   33.0767  -19.3547   36.0040 N   0  0  0  0  0  0  0  0  0  0  0  0
   32.3889  -20.3932   36.4239 C   0  0  0  0  0  0  0  0  0  0  0  0
   32.8488  -21.3525   37.3181 C   0  0  0  0  0  0  0  0  0  0  0  0
   32.0576  -22.4334   37.7237 C   0  0  0  0  0  0  0  0  0  0  0  0
   28.5277  -23.6207   36.7625 C   0  0  0  0  0  0  0  0  0  0  0  0
   29.7685  -23.5795   37.6174 C   0  0  0  0  0  0  0  0  0  0  0  0
   29.3859  -23.5195   39.1116 C   0  0  0  0  0  0  0  0  0  0  0  0
   30.3807  -24.9824   37.4839 C   0  0  0  0  0  0  0  0  0  0  0  0
   32.5788  -23.2937   38.6646 N   0  0  0  0  0  0  0  0  0  0  0  0
   33.0890  -24.1369   39.5779 C   0  0  0  0  0  0  0  0  0  0  0  0
   33.6780  -25.2826   39.2727 O   0  0  0  0  0  0  0  0  0  0  0  0
   32.5681  -24.2982   37.7538 H   0  0  0  0  0  0  0  0  0  0  0  0
   33.1143  -23.9726   41.0856 C   0  0  0  0  0  0  0  0  0  0  0  0
   32.1312  -22.9200   41.4655 C   0  0  0  0  0  0  0  0  0  0  0  0
   31.7426  -23.0661   42.9500 C   0  0  0  0  0  0  0  0  0  0  0  0
   30.5804  -24.4427   42.9343 S   0  0  0  0  0  0  0  0  0  0  0  0
   29.1823  -23.9997   42.7549 O   0  0  0  0  0  0  0  0  0  0  0  0
   30.7253  -25.3001   44.1566 O   0  0  0  0  0  0  0  0  0  0  0  0
   31.1525  -25.4509   41.5450 C   0  0  0  0  0  0  0  0  0  0  0  0
   32.6744  -25.3357   41.6126 C   0  0  0  0  0  0  0  0  0  0  0  0
   33.0838  -17.3279   34.5603 N   0  0  0  0  0  0  0  0  0  0  0  0
   32.7466  -17.0427   33.6565 H   0  0  0  0  0  0  0  0  0  0  0  0
   34.0745  -16.5988   35.2659 C   0  0  0  0  0  0  0  0  0  0  0  0
   33.7590  -15.3922   35.8431 C   0  0  0  0  0  0  0  0  0  0  0  0
   34.7145  -14.6816   36.5390 C   0  0  0  0  0  0  0  0  0  0  0  0
   35.9928  -15.1922   36.6526 C   0  0  0  0  0  0  0  0  0  0  0  0
   36.2423  -16.4020   36.0524 C   0  0  0  0  0  0  0  0  0  0  0  0
   35.3124  -17.0755   35.3845 N   0  0  0  0  0  0  0  0  0  0  0  0
   37.0305  -14.4789   37.3807 C   0  0  0  0  0  0  0  0  0  0  0  0
   37.8481  -13.9241   37.9695 N   0  0  0  0  0  0  0  0  0  0  0  0
 10 11  1  0  0  0
 11 12  1  0  0  0
 11 13  1  0  0  0
 11  1  1  0  0  0
  1  2  2  0  0  0
  2  3  1  0  0  0
  3  4  1  0  0  0
  4  5  1  0  0  0
  5 26  1  0  0  0
 26 28  1  0  0  0
 28 29  2  0  0  0
 29 30  1  0  0  0
 30 31  2  0  0  0
 31 32  1  0  0  0
 32 33  2  0  0  0
 31 34  1  0  0  0
 34 35  3  0  0  0
  5  6  2  0  0  0
  6  7  1  0  0  0
  7  8  1  0  0  0
  8  9  2  0  0  0
  9 14  1  0  0  0
 14 15  1  0  0  0
 15 16  2  0  0  0
 15 18  1  0  0  0
 18 19  1  0  0  0
 19 20  1  0  0  0
 20 21  1  0  0  0
 21 22  2  0  0  0
 21 23  2  0  0  0
 21 24  1  0  0  0
 24 25  1  0  0  0
  9  1  1  0  0  0
 25 18  1  0  0  0
  7  3  2  0  0  0
 33 28  1  0  0  0
 26 27  1  0  0  0
 14 17  1  0  0  0
M  END
> <minimizedAffinity>
-5.36346

> <CNNscore>
0.4876501262

> <CNNaffinity>
5.5469713211

> <CNN_VS>
2.7049813271

> <CNNaffinity_variance>
0.0918953940

$$$$
[H]c1nc(N([H])c2nc3c([H])c(N([H])C(=O)C4([H])C([H])([H])C([H])([H])S(=O)(=O)C([H])([H])C4([H])[H])c(C(C([H])([H])[H])(C([H])([H])[H])C([H])([H])[H])c([H])c3s2)c([H])c([H])c1C#N


 35 38  0  0  0  0  0  0  0  0999 V2000
   30.5020  -22.6091   37.1781 C   0  0  0  0  0  0  0  0  0  0  0  0
   30.1393  -21.6413   36.2469 C   0  0  0  0  0  0  0  0  0  0  0  0
   30.9793  -20.6029   35.8686 C   0  0  0  0  0  0  0  0  0  0  0  0
   30.9090  -19.2693   34.8092 S   0  0  0  0  0  0  0  0  0  0  0  0
   32.4863  -18.6271   35.1132 C   0  0  0  0  0  0  0  0  0  0  0  0
   32.9583  -19.4616   35.9917 N   0  0  0  0  0  0  0  0  0  0  0  0
   32.2258  -20.4742   36.3991 C   0  0  0  0  0  0  0  0  0  0  0  0
   32.6205  -21.4271   37.3306 C   0  0  0  0  0  0  0  0  0  0  0  0
   31.7844  -22.4799   37.7198 C   0  0  0  0  0  0  0  0  0  0  0  0
   28.1824  -23.4504   36.7627 C   0  0  0  0  0  0  0  0  0  0  0  0
   29.4737  -23.5706   37.5311 C   0  0  0  0  0  0  0  0  0  0  0  0
   29.1895  -23.6312   39.0471 C   0  0  0  0  0  0  0  0  0  0  0  0
   29.9774  -24.9900   37.2272 C   0  0  0  0  0  0  0  0  0  0  0  0
   32.2407  -23.3344   38.6989 N   0  0  0  0  0  0  0  0  0  0  0  0
   32.6829  -24.1728   39.6512 C   0  0  0  0  0  0  0  0  0  0  0  0
   32.4174  -25.4696   39.6701 O   0  0  0  0  0  0  0  0  0  0  0  0
   31.2984  -24.2435   38.3464 H   0  0  0  0  0  0  0  0  0  0  0  0
   33.5494  -23.8442   40.8522 C   0  0  0  0  0  0  0  0  0  0  0  0
   33.9887  -25.1193   41.4843 C   0  0  0  0  0  0  0  0  0  0  0  0
   35.2406  -24.8796   42.3510 C   0  0  0  0  0  0  0  0  0  0  0  0
   36.5663  -24.7807   41.1351 S   0  0  0  0  0  0  0  0  0  0  0  0
   37.1791  -26.0965   40.8590 O   0  0  0  0  0  0  0  0  0  0  0  0
   37.6032  -23.7717   41.5312 O   0  0  0  0  0  0  0  0  0  0  0  0
   35.7392  -24.1018   39.6760 C   0  0  0  0  0  0  0  0  0  0  0  0
   34.7408  -23.1007   40.2549 C   0  0  0  0  0  0  0  0  0  0  0  0
   33.0820  -17.4640   34.5130 N   0  0  0  0  0  0  0  0  0  0  0  0
   32.7881  -17.1843   33.5925 H   0  0  0  0  0  0  0  0  0  0  0  0
   34.0655  -16.7517   35.2453 C   0  0  0  0  0  0  0  0  0  0  0  0
   35.3465  -17.2417   35.3322 C   0  0  0  0  0  0  0  0  0  0  0  0
   36.3111  -16.5500   36.0346 C   0  0  0  0  0  0  0  0  0  0  0  0
   35.9804  -15.3589   36.6506 C   0  0  0  0  0  0  0  0  0  0  0  0
   34.6832  -14.9253   36.5256 C   0  0  0  0  0  0  0  0  0  0  0  0
   33.7640  -15.6022   35.8464 N   0  0  0  0  0  0  0  0  0  0  0  0
   36.9665  -14.5943   37.3980 C   0  0  0  0  0  0  0  0  0  0  0  0
   37.7490  -13.9806   37.9759 N   0  0  0  0  0  0  0  0  0  0  0  0
 10 11  1  0  0  0
 11 12  1  0  0  0
 11 13  1  0  0  0
 11  1  1  0  0  0
  1  2  2  0  0  0
  2  3  1  0  0  0
  3  4  1  0  0  0
  4  5  1  0  0  0
  5 26  1  0  0  0
 26 28  1  0  0  0
 28 29  2  0  0  0
 29 30  1  0  0  0
 30 31  2  0  0  0
 31 32  1  0  0  0
 32 33  2  0  0  0
 31 34  1  0  0  0
 34 35  3  0  0  0
  5  6  2  0  0  0
  6  7  1  0  0  0
  7  8  1  0  0  0
  8  9  2  0  0  0
  9 14  1  0  0  0
 14 15  1  0  0  0
 15 16  2  0  0  0
 15 18  1  0  0  0
 18 19  1  0  0  0
 19 20  1  0  0  0
 20 21  1  0  0  0
 21 22  2  0  0  0
 21 23  2  0  0  0
 21 24  1  0  0  0
 24 25  1  0  0  0
  9  1  1  0  0  0
 25 18  1  0  0  0
  7  3  2  0  0  0
 33 28  1  0  0  0
 26 27  1  0  0  0
 14 17  1  0  0  0
M  END
> <minimizedAffinity>
-5.35081

> <CNNscore>
0.4651233256

> <CNNaffinity>
5.5403709412

> <CNN_VS>
2.5769557953

> <CNNaffinity_variance>
0.2239857018

$$$$
[H]c1nc(N([H])c2nc3c([H])c(N([H])C(=O)C4([H])C([H])([H])C([H])([H])S(=O)(=O)C([H])([H])C4([H])[H])c(C(C([H])([H])[H])(C([H])([H])[H])C([H])([H])[H])c([H])c3s2)c([H])c([H])c1C#N


 35 38  0  0  0  0  0  0  0  0999 V2000
   34.5245  -19.2634   35.9778 C   0  0  0  0  0  0  0  0  0  0  0  0
   34.1970  -20.5600   36.3615 C   0  0  0  0  0  0  0  0  0  0  0  0
   34.5027  -21.0789   37.6121 C   0  0  0  0  0  0  0  0  0  0  0  0
   34.2868  -22.5580   38.4316 S   0  0  0  0  0  0  0  0  0  0  0  0
   35.0445  -22.1269   39.9259 C   0  0  0  0  0  0  0  0  0  0  0  0
   35.4080  -20.8981   39.7054 N   0  0  0  0  0  0  0  0  0  0  0  0
   35.1516  -20.3326   38.5468 C   0  0  0  0  0  0  0  0  0  0  0  0
   35.4905  -19.0312   38.1962 C   0  0  0  0  0  0  0  0  0  0  0  0
   35.1870  -18.4948   36.9395 C   0  0  0  0  0  0  0  0  0  0  0  0
   35.4095  -18.6460   33.7203 C   0  0  0  0  0  0  0  0  0  0  0  0
   34.2172  -18.9087   34.6044 C   0  0  0  0  0  0  0  0  0  0  0  0
   33.1992  -17.7544   34.4854 C   0  0  0  0  0  0  0  0  0  0  0  0
   33.4810  -20.0761   33.9292 C   0  0  0  0  0  0  0  0  0  0  0  0
   35.6238  -17.2181   36.6634 N   0  0  0  0  0  0  0  0  0  0  0  0
   36.0556  -15.9741   36.3961 C   0  0  0  0  0  0  0  0  0  0  0  0
   37.3029  -15.5725   36.5850 O   0  0  0  0  0  0  0  0  0  0  0  0
   36.7094  -17.4179   37.4509 H   0  0  0  0  0  0  0  0  0  0  0  0
   35.2578  -14.8113   35.8373 C   0  0  0  0  0  0  0  0  0  0  0  0
   33.8497  -14.9313   36.3079 C   0  0  0  0  0  0  0  0  0  0  0  0
   33.1405  -13.5657   36.2173 C   0  0  0  0  0  0  0  0  0  0  0  0
   33.7684  -12.6832   37.6571 S   0  0  0  0  0  0  0  0  0  0  0  0
   32.9271  -12.8852   38.8548 O   0  0  0  0  0  0  0  0  0  0  0  0
   33.9599  -11.2237   37.3685 O   0  0  0  0  0  0  0  0  0  0  0  0
   35.4273  -13.3724   37.8734 C   0  0  0  0  0  0  0  0  0  0  0  0
   35.9255  -13.5805   36.4443 C   0  0  0  0  0  0  0  0  0  0  0  0
   35.2006  -22.9540   41.0918 N   0  0  0  0  0  0  0  0  0  0  0  0
   34.4871  -23.6281   41.3119 H   0  0  0  0  0  0  0  0  0  0  0  0
   36.3603  -22.7875   41.8908 C   0  0  0  0  0  0  0  0  0  0  0  0
   36.2903  -22.0746   43.0635 C   0  0  0  0  0  0  0  0  0  0  0  0
   37.4116  -21.9163   43.8509 C   0  0  0  0  0  0  0  0  0  0  0  0
   38.6074  -22.4807   43.4522 C   0  0  0  0  0  0  0  0  0  0  0  0
   38.6095  -23.1799   42.2700 C   0  0  0  0  0  0  0  0  0  0  0  0
   37.5219  -23.3240   41.5212 N   0  0  0  0  0  0  0  0  0  0  0  0
   39.8135  -22.3426   44.2532 C   0  0  0  0  0  0  0  0  0  0  0  0
   40.7624  -22.2457   44.8961 N   0  0  0  0  0  0  0  0  0  0  0  0
 10 11  1  0  0  0
 11 12  1  0  0  0
 11 13  1  0  0  0
 11  1  1  0  0  0
  1  2  2  0  0  0
  2  3  1  0  0  0
  3  4  1  0  0  0
  4  5  1  0  0  0
  5 26  1  0  0  0
 26 28  1  0  0  0
 28 29  2  0  0  0
 29 30  1  0  0  0
 30 31  2  0  0  0
 31 32  1  0  0  0
 32 33  2  0  0  0
 31 34  1  0  0  0
 34 35  3  0  0  0
  5  6  2  0  0  0
  6  7  1  0  0  0
  7  8  1  0  0  0
  8  9  2  0  0  0
  9 14  1  0  0  0
 14 15  1  0  0  0
 15 16  2  0  0  0
 15 18  1  0  0  0
 18 19  1  0  0  0
 19 20  1  0  0  0
 20 21  1  0  0  0
 21 22  2  0  0  0
 21 23  2  0  0  0
 21 24  1  0  0  0
 24 25  1  0  0  0
  9  1  1  0  0  0
 25 18  1  0  0  0
  7  3  2  0  0  0
 33 28  1  0  0  0
 26 27  1  0  0  0
 14 17  1  0  0  0
M  END
> <minimizedAffinity>
-6.05639

> <CNNscore>
0.2775400281

> <CNNaffinity>
5.8216972351

> <CNN_VS>
1.6157540083

> <CNNaffinity_variance>
0.0686099529

$$$$
[H]c1nc(N([H])c2nc3c([H])c(N([H])C(=O)C4([H])C([H])([H])C([H])([H])S(=O)(=O)C([H])([H])C4([H])[H])c(C(C([H])([H])[H])(C([H])([H])[H])C([H])([H])[H])c([H])c3s2)c([H])c([H])c1C#N


 35 38  0  0  0  0  0  0  0  0999 V2000
   32.4478  -23.1856   36.4507 C   0  0  0  0  0  0  0  0  0  0  0  0
   32.1447  -22.3413   35.3873 C   0  0  0  0  0  0  0  0  0  0  0  0
   32.4177  -20.9803   35.4003 C   0  0  0  0  0  0  0  0  0  0  0  0
   32.2059  -19.6593   34.3440 S   0  0  0  0  0  0  0  0  0  0  0  0
   32.8877  -18.4265   35.3482 C   0  0  0  0  0  0  0  0  0  0  0  0
   33.2287  -19.0946   36.4103 N   0  0  0  0  0  0  0  0  0  0  0  0
   33.0073  -20.3887   36.4746 C   0  0  0  0  0  0  0  0  0  0  0  0
   33.3260  -21.2052   37.5530 C   0  0  0  0  0  0  0  0  0  0  0  0
   33.0579  -22.5789   37.5527 C   0  0  0  0  0  0  0  0  0  0  0  0
   30.9201  -24.9942   37.2604 C   0  0  0  0  0  0  0  0  0  0  0  0
   32.0118  -24.5632   36.3146 C   0  0  0  0  0  0  0  0  0  0  0  0
   33.1752  -25.5772   36.3439 C   0  0  0  0  0  0  0  0  0  0  0  0
   31.4186  -24.7737   34.9129 C   0  0  0  0  0  0  0  0  0  0  0  0
   33.3498  -23.2907   38.6950 N   0  0  0  0  0  0  0  0  0  0  0  0
   33.6314  -23.9900   39.8073 C   0  0  0  0  0  0  0  0  0  0  0  0
   33.2119  -25.2269   40.0239 O   0  0  0  0  0  0  0  0  0  0  0  0
   32.3281  -24.1412   38.4277 H   0  0  0  0  0  0  0  0  0  0  0  0
   34.4581  -23.5493   41.0002 C   0  0  0  0  0  0  0  0  0  0  0  0
   35.1534  -22.2786   40.6532 C   0  0  0  0  0  0  0  0  0  0  0  0
   35.5711  -21.5333   41.9361 C   0  0  0  0  0  0  0  0  0  0  0  0
   34.0303  -20.7838   42.4930 S   0  0  0  0  0  0  0  0  0  0  0  0
   33.8276  -19.4296   41.9379 O   0  0  0  0  0  0  0  0  0  0  0  0
   33.9303  -20.7772   43.9897 O   0  0  0  0  0  0  0  0  0  0  0  0
   32.7715  -21.9467   41.9125 C   0  0  0  0  0  0  0  0  0  0  0  0
   33.4249  -23.3151   42.0988 C   0  0  0  0  0  0  0  0  0  0  0  0
   33.0265  -17.0295   35.0368 N   0  0  0  0  0  0  0  0  0  0  0  0
   32.3652  -16.6000   34.4121 H   0  0  0  0  0  0  0  0  0  0  0  0
   34.0950  -16.3066   35.6254 C   0  0  0  0  0  0  0  0  0  0  0  0
   35.3718  -16.8133   35.5853 C   0  0  0  0  0  0  0  0  0  0  0  0
   36.4180  -16.1118   36.1471 C   0  0  0  0  0  0  0  0  0  0  0  0
   36.1732  -14.8940   36.7510 C   0  0  0  0  0  0  0  0  0  0  0  0
   34.8754  -14.4449   36.7574 C   0  0  0  0  0  0  0  0  0  0  0  0
   33.8772  -15.1314   36.2128 N   0  0  0  0  0  0  0  0  0  0  0  0
   37.2467  -14.1184   37.3524 C   0  0  0  0  0  0  0  0  0  0  0  0
   38.0918  -13.4926   37.8184 N   0  0  0  0  0  0  0  0  0  0  0  0
 10 11  1  0  0  0
 11 12  1  0  0  0
 11 13  1  0  0  0
 11  1  1  0  0  0
  1  2  2  0  0  0
  2  3  1  0  0  0
  3  4  1  0  0  0
  4  5  1  0  0  0
  5 26  1  0  0  0
 26 28  1  0  0  0
 28 29  2  0  0  0
 29 30  1  0  0  0
 30 31  2  0  0  0
 31 32  1  0  0  0
 32 33  2  0  0  0
 31 34  1  0  0  0
 34 35  3  0  0  0
  5  6  2  0  0  0
  6  7  1  0  0  0
  7  8  1  0  0  0
  8  9  2  0  0  0
  9 14  1  0  0  0
 14 15  1  0  0  0
 15 16  2  0  0  0
 15 18  1  0  0  0
 18 19  1  0  0  0
 19 20  1  0  0  0
 20 21  1  0  0  0
 21 22  2  0  0  0
 21 23  2  0  0  0
 21 24  1  0  0  0
 24 25  1  0  0  0
  9  1  1  0  0  0
 25 18  1  0  0  0
  7  3  2  0  0  0
 33 28  1  0  0  0
 26 27  1  0  0  0
 14 17  1  0  0  0
M  END
> <minimizedAffinity>
-6.13143

> <CNNscore>
0.2635483742

> <CNNaffinity>
5.6230564117

> <CNN_VS>
1.4819474220

> <CNNaffinity_variance>
0.2824288607

$$$$
[H]c1nc(N([H])c2nc3c([H])c(N([H])C(=O)C4([H])C([H])([H])C([H])([H])S(=O)(=O)C([H])([H])C4([H])[H])c(C(C([H])([H])[H])(C([H])([H])[H])C([H])([H])[H])c([H])c3s2)c([H])c([H])c1C#N


 35 38  0  0  0  0  0  0  0  0999 V2000
   31.4850  -22.6670   37.3022 C   0  0  0  0  0  0  0  0  0  0  0  0
   30.9581  -21.7504   36.3979 C   0  0  0  0  0  0  0  0  0  0  0  0
   31.6021  -20.5692   36.0560 C   0  0  0  0  0  0  0  0  0  0  0  0
   31.2985  -19.2373   35.0363 S   0  0  0  0  0  0  0  0  0  0  0  0
   32.7376  -18.3367   35.3692 C   0  0  0  0  0  0  0  0  0  0  0  0
   33.3486  -19.1012   36.2254 N   0  0  0  0  0  0  0  0  0  0  0  0
   32.8059  -20.2390   36.5978 C   0  0  0  0  0  0  0  0  0  0  0  0
   33.3617  -21.1353   37.5029 C   0  0  0  0  0  0  0  0  0  0  0  0
   32.7240  -22.3304   37.8554 C   0  0  0  0  0  0  0  0  0  0  0  0
   31.3161  -25.1513   37.5482 C   0  0  0  0  0  0  0  0  0  0  0  0
   30.6420  -23.8050   37.6200 C   0  0  0  0  0  0  0  0  0  0  0  0
   29.3199  -23.8264   36.8236 C   0  0  0  0  0  0  0  0  0  0  0  0
   30.1564  -23.6892   39.0732 C   0  0  0  0  0  0  0  0  0  0  0  0
   33.3230  -23.1204   38.8114 N   0  0  0  0  0  0  0  0  0  0  0  0
   33.9018  -23.8932   39.7459 C   0  0  0  0  0  0  0  0  0  0  0  0
   33.2284  -24.6890   40.5619 O   0  0  0  0  0  0  0  0  0  0  0  0
   32.1361  -23.2432   39.4554 H   0  0  0  0  0  0  0  0  0  0  0  0
   35.3803  -24.0305   40.0558 C   0  0  0  0  0  0  0  0  0  0  0  0
   36.1544  -23.7436   38.8160 C   0  0  0  0  0  0  0  0  0  0  0  0
   37.6060  -23.3657   39.1707 C   0  0  0  0  0  0  0  0  0  0  0  0
   37.4593  -21.6581   39.7262 S   0  0  0  0  0  0  0  0  0  0  0  0
   37.6230  -20.6890   38.6230 O   0  0  0  0  0  0  0  0  0  0  0  0
   38.4043  -21.3621   40.8530 O   0  0  0  0  0  0  0  0  0  0  0  0
   35.7969  -21.5963   40.4380 C   0  0  0  0  0  0  0  0  0  0  0  0
   35.6370  -22.9584   41.1112 C   0  0  0  0  0  0  0  0  0  0  0  0
   33.1194  -17.0691   34.8076 N   0  0  0  0  0  0  0  0  0  0  0  0
   32.6525  -16.7411   33.9791 H   0  0  0  0  0  0  0  0  0  0  0  0
   34.1441  -16.3256   35.4465 C   0  0  0  0  0  0  0  0  0  0  0  0
   33.8518  -15.1194   36.0367 C   0  0  0  0  0  0  0  0  0  0  0  0
   34.8409  -14.3949   36.6683 C   0  0  0  0  0  0  0  0  0  0  0  0
   36.1294  -14.8910   36.7041 C   0  0  0  0  0  0  0  0  0  0  0  0
   36.3544  -16.1012   36.0950 C   0  0  0  0  0  0  0  0  0  0  0  0
   35.3922  -16.7882   35.4897 N   0  0  0  0  0  0  0  0  0  0  0  0
   37.2025  -14.1627   37.3626 C   0  0  0  0  0  0  0  0  0  0  0  0
   38.0544  -13.5999   37.8923 N   0  0  0  0  0  0  0  0  0  0  0  0
 10 11  1  0  0  0
 11 12  1  0  0  0
 11 13  1  0  0  0
 11  1  1  0  0  0
  1  2  2  0  0  0
  2  3  1  0  0  0
  3  4  1  0  0  0
  4  5  1  0  0  0
  5 26  1  0  0  0
 26 28  1  0  0  0
 28 29  2  0  0  0
 29 30  1  0  0  0
 30 31  2  0  0  0
 31 32  1  0  0  0
 32 33  2  0  0  0
 31 34  1  0  0  0
 34 35  3  0  0  0
  5  6  2  0  0  0
  6  7  1  0  0  0
  7  8  1  0  0  0
  8  9  2  0  0  0
  9 14  1  0  0  0
 14 15  1  0  0  0
 15 16  2  0  0  0
 15 18  1  0  0  0
 18 19  1  0  0  0
 19 20  1  0  0  0
 20 21  1  0  0  0
 21 22  2  0  0  0
 21 23  2  0  0  0
 21 24  1  0  0  0
 24 25  1  0  0  0
  9  1  1  0  0  0
 25 18  1  0  0  0
  7  3  2  0  0  0
 33 28  1  0  0  0
 26 27  1  0  0  0
 14 17  1  0  0  0
M  END
> <minimizedAffinity>
-5.88864

> <CNNscore>
0.2527077496

> <CNNaffinity>
5.6678199768

> <CNN_VS>
1.4323019981

> <CNNaffinity_variance>
0.1320821494

$$$$
[H]c1nc(N([H])c2nc3c([H])c(N([H])C(=O)C4([H])C([H])([H])C([H])([H])S(=O)(=O)C([H])([H])C4([H])[H])c(C(C([H])([H])[H])(C([H])([H])[H])C([H])([H])[H])c([H])c3s2)c([H])c([H])c1C#N


 35 38  0  0  0  0  0  0  0  0999 V2000
   34.0561  -19.8062   35.9586 C   0  0  0  0  0  0  0  0  0  0  0  0
   33.5244  -21.0513   36.2784 C   0  0  0  0  0  0  0  0  0  0  0  0
   33.7248  -21.6669   37.5064 C   0  0  0  0  0  0  0  0  0  0  0  0
   33.2676  -23.1289   38.2540 S   0  0  0  0  0  0  0  0  0  0  0  0
   34.0583  -22.8885   39.7739 C   0  0  0  0  0  0  0  0  0  0  0  0
   34.6123  -21.7231   39.6143 N   0  0  0  0  0  0  0  0  0  0  0  0
   34.4664  -21.0734   38.4809 C   0  0  0  0  0  0  0  0  0  0  0  0
   35.0096  -19.8267   38.1944 C   0  0  0  0  0  0  0  0  0  0  0  0
   34.8142  -19.1941   36.9612 C   0  0  0  0  0  0  0  0  0  0  0  0
   35.0741  -19.0771   33.7923 C   0  0  0  0  0  0  0  0  0  0  0  0
   33.8306  -19.3470   34.6003 C   0  0  0  0  0  0  0  0  0  0  0  0
   32.8665  -18.1445   34.5148 C   0  0  0  0  0  0  0  0  0  0  0  0
   33.0823  -20.4336   33.8128 C   0  0  0  0  0  0  0  0  0  0  0  0
   35.4489  -17.9904   36.7490 N   0  0  0  0  0  0  0  0  0  0  0  0
   36.0733  -16.8183   36.5448 C   0  0  0  0  0  0  0  0  0  0  0  0
   37.3178  -16.5725   36.9237 O   0  0  0  0  0  0  0  0  0  0  0  0
   36.3654  -18.3051   37.6975 H   0  0  0  0  0  0  0  0  0  0  0  0
   35.5276  -15.5790   35.8613 C   0  0  0  0  0  0  0  0  0  0  0  0
   34.0814  -15.4507   36.1939 C   0  0  0  0  0  0  0  0  0  0  0  0
   33.6123  -13.9987   35.9763 C   0  0  0  0  0  0  0  0  0  0  0  0
   34.2391  -13.1443   37.4334 S   0  0  0  0  0  0  0  0  0  0  0  0
   33.2700  -13.1440   38.5487 O   0  0  0  0  0  0  0  0  0  0  0  0
   34.6884  -11.7514   37.1047 O   0  0  0  0  0  0  0  0  0  0  0  0
   35.7387  -14.0705   37.8425 C   0  0  0  0  0  0  0  0  0  0  0  0
   36.3260  -14.4348   36.4800 C   0  0  0  0  0  0  0  0  0  0  0  0
   34.0644  -23.7809   40.9015 N   0  0  0  0  0  0  0  0  0  0  0  0
   34.8739  -24.3549   41.0662 H   0  0  0  0  0  0  0  0  0  0  0  0
   32.9235  -23.8177   41.7430 C   0  0  0  0  0  0  0  0  0  0  0  0
   33.0771  -23.9265   43.1043 C   0  0  0  0  0  0  0  0  0  0  0  0
   31.9728  -23.9533   43.9302 C   0  0  0  0  0  0  0  0  0  0  0  0
   30.7093  -23.8693   43.3788 C   0  0  0  0  0  0  0  0  0  0  0  0
   30.6255  -23.7629   42.0120 C   0  0  0  0  0  0  0  0  0  0  0  0
   31.6977  -23.7388   41.2284 N   0  0  0  0  0  0  0  0  0  0  0  0
   29.5173  -23.8896   44.2120 C   0  0  0  0  0  0  0  0  0  0  0  0
   28.5706  -23.9200   44.8646 N   0  0  0  0  0  0  0  0  0  0  0  0
 10 11  1  0  0  0
 11 12  1  0  0  0
 11 13  1  0  0  0
 11  1  1  0  0  0
  1  2  2  0  0  0
  2  3  1  0  0  0
  3  4  1  0  0  0
  4  5  1  0  0  0
  5 26  1  0  0  0
 26 28  1  0  0  0
 28 29  2  0  0  0
 29 30  1  0  0  0
 30 31  2  0  0  0
 31 32  1  0  0  0
 32 33  2  0  0  0
 31 34  1  0  0  0
 34 35  3  0  0  0
  5  6  2  0  0  0
  6  7  1  0  0  0
  7  8  1  0  0  0
  8  9  2  0  0  0
  9 14  1  0  0  0
 14 15  1  0  0  0
 15 16  2  0  0  0
 15 18  1  0  0  0
 18 19  1  0  0  0
 19 20  1  0  0  0
 20 21  1  0  0  0
 21 22  2  0  0  0
 21 23  2  0  0  0
 21 24  1  0  0  0
 24 25  1  0  0  0
  9  1  1  0  0  0
 25 18  1  0  0  0
  7  3  2  0  0  0
 33 28  1  0  0  0
 26 27  1  0  0  0
 14 17  1  0  0  0
M  END
> <minimizedAffinity>
-5.98566

> <CNNscore>
0.2522730231

> <CNNaffinity>
5.6667318344

> <CNN_VS>
1.4295635223

> <CNNaffinity_variance>
0.0797579661

$$$$
[H]c1nc(N([H])c2nc3c([H])c(N([H])C(=O)C4([H])C([H])([H])C([H])([H])S(=O)(=O)C([H])([H])C4([H])[H])c(C(C([H])([H])[H])(C([H])([H])[H])C([H])([H])[H])c([H])c3s2)c([H])c([H])c1C#N


 35 38  0  0  0  0  0  0  0  0999 V2000
   37.2491  -21.5670   39.8891 C   0  0  0  0  0  0  0  0  0  0  0  0
   36.7096  -22.0228   41.0878 C   0  0  0  0  0  0  0  0  0  0  0  0
   35.4792  -21.6008   41.5726 C   0  0  0  0  0  0  0  0  0  0  0  0
   34.5116  -21.9050   42.9426 S   0  0  0  0  0  0  0  0  0  0  0  0
   33.1917  -20.8570   42.5520 C   0  0  0  0  0  0  0  0  0  0  0  0
   33.5700  -20.3501   41.4160 N   0  0  0  0  0  0  0  0  0  0  0  0
   34.7212  -20.7017   40.8879 C   0  0  0  0  0  0  0  0  0  0  0  0
   35.2303  -20.2287   39.6843 C   0  0  0  0  0  0  0  0  0  0  0  0
   36.4685  -20.6467   39.1831 C   0  0  0  0  0  0  0  0  0  0  0  0
   39.6281  -20.9592   39.4078 C   0  0  0  0  0  0  0  0  0  0  0  0
   38.5859  -22.0356   39.5733 C   0  0  0  0  0  0  0  0  0  0  0  0
   38.6248  -23.0057   38.3732 C   0  0  0  0  0  0  0  0  0  0  0  0
   39.1059  -22.9076   40.7266 C   0  0  0  0  0  0  0  0  0  0  0  0
   36.9168  -20.0700   38.0155 N   0  0  0  0  0  0  0  0  0  0  0  0
   37.3536  -19.5017   36.8790 C   0  0  0  0  0  0  0  0  0  0  0  0
   37.5147  -18.1967   36.7244 O   0  0  0  0  0  0  0  0  0  0  0  0
   36.4261  -18.8716   38.4177 H   0  0  0  0  0  0  0  0  0  0  0  0
   37.7501  -20.1893   35.5864 C   0  0  0  0  0  0  0  0  0  0  0  0
   37.8408  -19.1632   34.5106 C   0  0  0  0  0  0  0  0  0  0  0  0
   38.7100  -19.6852   33.3496 C   0  0  0  0  0  0  0  0  0  0  0  0
   40.3882  -19.4840   33.9734 S   0  0  0  0  0  0  0  0  0  0  0  0
   40.9646  -18.1675   33.6301 O   0  0  0  0  0  0  0  0  0  0  0  0
   41.2814  -20.6015   33.5224 O   0  0  0  0  0  0  0  0  0  0  0  0
   40.1925  -19.6899   35.7604 C   0  0  0  0  0  0  0  0  0  0  0  0
   39.1262  -20.7764   35.8881 C   0  0  0  0  0  0  0  0  0  0  0  0
   31.9954  -20.6421   43.3205 N   0  0  0  0  0  0  0  0  0  0  0  0
   31.5105  -21.4364   43.7024 H   0  0  0  0  0  0  0  0  0  0  0  0
   31.5428  -19.3119   43.5125 C   0  0  0  0  0  0  0  0  0  0  0  0
   32.2339  -18.4642   44.3445 C   0  0  0  0  0  0  0  0  0  0  0  0
   31.8055  -17.1663   44.5289 C   0  0  0  0  0  0  0  0  0  0  0  0
   30.6755  -16.7233   43.8700 C   0  0  0  0  0  0  0  0  0  0  0  0
   30.0311  -17.6205   43.0539 C   0  0  0  0  0  0  0  0  0  0  0  0
   30.4546  -18.8682   42.8859 N   0  0  0  0  0  0  0  0  0  0  0  0
   30.1902  -15.3616   44.0317 C   0  0  0  0  0  0  0  0  0  0  0  0
   29.8154  -14.2834   44.1731 N   0  0  0  0  0  0  0  0  0  0  0  0
 10 11  1  0  0  0
 11 12  1  0  0  0
 11 13  1  0  0  0
 11  1  1  0  0  0
  1  2  2  0  0  0
  2  3  1  0  0  0
  3  4  1  0  0  0
  4  5  1  0  0  0
  5 26  1  0  0  0
 26 28  1  0  0  0
 28 29  2  0  0  0
 29 30  1  0  0  0
 30 31  2  0  0  0
 31 32  1  0  0  0
 32 33  2  0  0  0
 31 34  1  0  0  0
 34 35  3  0  0  0
  5  6  2  0  0  0
  6  7  1  0  0  0
  7  8  1  0  0  0
  8  9  2  0  0  0
  9 14  1  0  0  0
 14 15  1  0  0  0
 15 16  2  0  0  0
 15 18  1  0  0  0
 18 19  1  0  0  0
 19 20  1  0  0  0
 20 21  1  0  0  0
 21 22  2  0  0  0
 21 23  2  0  0  0
 21 24  1  0  0  0
 24 25  1  0  0  0
  9  1  1  0  0  0
 25 18  1  0  0  0
  7  3  2  0  0  0
 33 28  1  0  0  0
 26 27  1  0  0  0
 14 17  1  0  0  0
M  END
> <minimizedAffinity>
-5.63125

> <CNNscore>
0.2488986254

> <CNNaffinity>
5.3959760666

> <CNN_VS>
1.3430510759

> <CNNaffinity_variance>
0.3207654357

$$$$
[H]c1nc(N([H])c2nc3c([H])c(N([H])C(=O)C4([H])C([H])([H])C([H])([H])S(=O)(=O)C([H])([H])C4([H])[H])c(C(C([H])([H])[H])(C([H])([H])[H])C([H])([H])[H])c([H])c3s2)c([H])c([H])c1C#N


 35 38  0  0  0  0  0  0  0  0999 V2000
   38.7464  -19.4672   35.7869 C   0  0  0  0  0  0  0  0  0  0  0  0
   37.9151  -18.9432   34.8020 C   0  0  0  0  0  0  0  0  0  0  0  0
   36.5437  -18.8028   34.9655 C   0  0  0  0  0  0  0  0  0  0  0  0
   35.2323  -18.2347   34.0365 S   0  0  0  0  0  0  0  0  0  0  0  0
   33.9723  -18.5142   35.1886 C   0  0  0  0  0  0  0  0  0  0  0  0
   34.6259  -19.0160   36.1945 N   0  0  0  0  0  0  0  0  0  0  0  0
   35.9283  -19.1776   36.1198 C   0  0  0  0  0  0  0  0  0  0  0  0
   36.7311  -19.7022   37.1256 C   0  0  0  0  0  0  0  0  0  0  0  0
   38.1150  -19.8479   36.9748 C   0  0  0  0  0  0  0  0  0  0  0  0
   40.6042  -21.0581   35.2594 C   0  0  0  0  0  0  0  0  0  0  0  0
   40.1411  -19.6328   35.4213 C   0  0  0  0  0  0  0  0  0  0  0  0
   41.1091  -18.8578   36.3407 C   0  0  0  0  0  0  0  0  0  0  0  0
   40.3890  -18.9844   34.0506 C   0  0  0  0  0  0  0  0  0  0  0  0
   38.8145  -20.4400   38.0029 N   0  0  0  0  0  0  0  0  0  0  0  0
   39.5007  -21.0127   39.0062 C   0  0  0  0  0  0  0  0  0  0  0  0
   40.5304  -20.4423   39.6120 O   0  0  0  0  0  0  0  0  0  0  0  0
   39.8480  -19.5880   37.7921 H   0  0  0  0  0  0  0  0  0  0  0  0
   39.2587  -22.3664   39.6463 C   0  0  0  0  0  0  0  0  0  0  0  0
   37.7984  -22.5196   39.8967 C   0  0  0  0  0  0  0  0  0  0  0  0
   37.4387  -24.0104   40.0514 C   0  0  0  0  0  0  0  0  0  0  0  0
   37.4235  -24.6054   38.3509 S   0  0  0  0  0  0  0  0  0  0  0  0
   36.0903  -24.4913   37.7243 O   0  0  0  0  0  0  0  0  0  0  0  0
   37.9511  -26.0062   38.2526 O   0  0  0  0  0  0  0  0  0  0  0  0
   38.6461  -23.5516   37.5332 C   0  0  0  0  0  0  0  0  0  0  0  0
   39.7317  -23.3629   38.5915 C   0  0  0  0  0  0  0  0  0  0  0  0
   32.5705  -18.2365   35.0285 N   0  0  0  0  0  0  0  0  0  0  0  0
   32.2796  -17.2975   34.8149 H   0  0  0  0  0  0  0  0  0  0  0  0
   31.6469  -19.3021   35.1778 C   0  0  0  0  0  0  0  0  0  0  0  0
   32.0554  -20.5987   34.9768 C   0  0  0  0  0  0  0  0  0  0  0  0
   31.1655  -21.6413   35.1295 C   0  0  0  0  0  0  0  0  0  0  0  0
   29.8587  -21.3729   35.4869 C   0  0  0  0  0  0  0  0  0  0  0  0
   29.5153  -20.0561   35.6720 C   0  0  0  0  0  0  0  0  0  0  0  0
   30.3828  -19.0616   35.5210 N   0  0  0  0  0  0  0  0  0  0  0  0
   28.8877  -22.4415   35.6629 C   0  0  0  0  0  0  0  0  0  0  0  0
   28.1318  -23.2973   35.8006 N   0  0  0  0  0  0  0  0  0  0  0  0
 10 11  1  0  0  0
 11 12  1  0  0  0
 11 13  1  0  0  0
 11  1  1  0  0  0
  1  2  2  0  0  0
  2  3  1  0  0  0
  3  4  1  0  0  0
  4  5  1  0  0  0
  5 26  1  0  0  0
 26 28  1  0  0  0
 28 29  2  0  0  0
 29 30  1  0  0  0
 30 31  2  0  0  0
 31 32  1  0  0  0
 32 33  2  0  0  0
 31 34  1  0  0  0
 34 35  3  0  0  0
  5  6  2  0  0  0
  6  7  1  0  0  0
  7  8  1  0  0  0
  8  9  2  0  0  0
  9 14  1  0  0  0
 14 15  1  0  0  0
 15 16  2  0  0  0
 15 18  1  0  0  0
 18 19  1  0  0  0
 19 20  1  0  0  0
 20 21  1  0  0  0
 21 22  2  0  0  0
 21 23  2  0  0  0
 21 24  1  0  0  0
 24 25  1  0  0  0
  9  1  1  0  0  0
 25 18  1  0  0  0
  7  3  2  0  0  0
 33 28  1  0  0  0
 26 27  1  0  0  0
 14 17  1  0  0  0
M  END
> <minimizedAffinity>
-5.38017

> <CNNscore>
0.2453690618

> <CNNaffinity>
5.7945523262

> <CNN_VS>
1.4218038321

> <CNNaffinity_variance>
0.4547886848

$$$$
[H]c1nc(N([H])c2nc3c([H])c(N([H])C(=O)C4([H])C([H])([H])C([H])([H])S(=O)(=O)C([H])([H])C4([H])[H])c(C(C([H])([H])[H])(C([H])([H])[H])C([H])([H])[H])c([H])c3s2)c([H])c([H])c1C#N


 35 38  0  0  0  0  0  0  0  0999 V2000
   33.7676  -19.9343   36.1668 C   0  0  0  0  0  0  0  0  0  0  0  0
   33.2039  -21.1223   36.6209 C   0  0  0  0  0  0  0  0  0  0  0  0
   33.4955  -21.6725   37.8615 C   0  0  0  0  0  0  0  0  0  0  0  0
   33.0379  -23.0549   38.7476 S   0  0  0  0  0  0  0  0  0  0  0  0
   33.9931  -22.7709   40.1618 C   0  0  0  0  0  0  0  0  0  0  0  0
   34.5910  -21.6538   39.8699 N   0  0  0  0  0  0  0  0  0  0  0  0
   34.3652  -21.0672   38.7155 C   0  0  0  0  0  0  0  0  0  0  0  0
   34.9438  -19.8762   38.2933 C   0  0  0  0  0  0  0  0  0  0  0  0
   34.6575  -19.3097   37.0458 C   0  0  0  0  0  0  0  0  0  0  0  0
   32.6584  -18.2577   34.6770 C   0  0  0  0  0  0  0  0  0  0  0  0
   33.4291  -19.5463   34.8098 C   0  0  0  0  0  0  0  0  0  0  0  0
   32.7349  -20.6688   34.0094 C   0  0  0  0  0  0  0  0  0  0  0  0
   34.7199  -19.3127   34.0097 C   0  0  0  0  0  0  0  0  0  0  0  0
   35.3324  -18.1627   36.6911 N   0  0  0  0  0  0  0  0  0  0  0  0
   35.9961  -17.0461   36.3473 C   0  0  0  0  0  0  0  0  0  0  0  0
   37.2961  -16.8772   36.5323 O   0  0  0  0  0  0  0  0  0  0  0  0
   36.3549  -18.5092   37.5114 H   0  0  0  0  0  0  0  0  0  0  0  0
   35.4392  -15.7953   35.6944 C   0  0  0  0  0  0  0  0  0  0  0  0
   34.0228  -15.6259   36.1230 C   0  0  0  0  0  0  0  0  0  0  0  0
   33.5796  -14.1625   35.9284 C   0  0  0  0  0  0  0  0  0  0  0  0
   34.3265  -13.3192   37.3344 S   0  0  0  0  0  0  0  0  0  0  0  0
   33.4354  -13.2873   38.5126 O   0  0  0  0  0  0  0  0  0  0  0  0
   34.7901  -11.9407   36.9674 O   0  0  0  0  0  0  0  0  0  0  0  0
   35.8246  -14.2844   37.6472 C   0  0  0  0  0  0  0  0  0  0  0  0
   36.3083  -14.6708   36.2505 C   0  0  0  0  0  0  0  0  0  0  0  0
   34.0661  -23.5911   41.3407 N   0  0  0  0  0  0  0  0  0  0  0  0
   33.2366  -23.7275   41.8933 H   0  0  0  0  0  0  0  0  0  0  0  0
   35.3105  -24.1798   41.6810 C   0  0  0  0  0  0  0  0  0  0  0  0
   35.6320  -24.3929   43.0000 C   0  0  0  0  0  0  0  0  0  0  0  0
   36.8363  -24.9736   43.3387 C   0  0  0  0  0  0  0  0  0  0  0  0
   37.7183  -25.3408   42.3413 C   0  0  0  0  0  0  0  0  0  0  0  0
   37.3364  -25.0999   41.0442 C   0  0  0  0  0  0  0  0  0  0  0  0
   36.1734  -24.5391   40.7324 N   0  0  0  0  0  0  0  0  0  0  0  0
   38.9972  -25.9600   42.6524 C   0  0  0  0  0  0  0  0  0  0  0  0
   40.0139  -26.4454   42.8837 N   0  0  0  0  0  0  0  0  0  0  0  0
 10 11  1  0  0  0
 11 12  1  0  0  0
 11 13  1  0  0  0
 11  1  1  0  0  0
  1  2  2  0  0  0
  2  3  1  0  0  0
  3  4  1  0  0  0
  4  5  1  0  0  0
  5 26  1  0  0  0
 26 28  1  0  0  0
 28 29  2  0  0  0
 29 30  1  0  0  0
 30 31  2  0  0  0
 31 32  1  0  0  0
 32 33  2  0  0  0
 31 34  1  0  0  0
 34 35  3  0  0  0
  5  6  2  0  0  0
  6  7  1  0  0  0
  7  8  1  0  0  0
  8  9  2  0  0  0
  9 14  1  0  0  0
 14 15  1  0  0  0
 15 16  2  0  0  0
 15 18  1  0  0  0
 18 19  1  0  0  0
 19 20  1  0  0  0
 20 21  1  0  0  0
 21 22  2  0  0  0
 21 23  2  0  0  0
 21 24  1  0  0  0
 24 25  1  0  0  0
  9  1  1  0  0  0
 25 18  1  0  0  0
  7  3  2  0  0  0
 33 28  1  0  0  0
 26 27  1  0  0  0
 14 17  1  0  0  0
M  END
> <minimizedAffinity>
-5.89803

> <CNNscore>
0.2344656289

> <CNNaffinity>
5.7340531349

> <CNN_VS>
1.3444384336

> <CNNaffinity_variance>
0.0968740433

$$$$
[H]c1nc(N([H])c2c(OC([H])([H])[H])c([H])c3c(c2[H])c([H])c([H])n3[H])nc(N2C([H])([H])C([H])([H])[C@]([H])(N([H])C(=O)N([H])C([H])([H])[H])C2([H])[H])c1Cl


 33 36  0  0  0  0  0  0  0  0999 V2000
   35.7557  -16.9968   35.4136 C   0  0  0  0  0  0  0  0  0  0  0  0
   36.0425  -15.9171   36.1487 N   0  0  0  0  0  0  0  0  0  0  0  0
   35.1569  -14.9996   36.5589 C   0  0  0  0  0  0  0  0  0  0  0  0
   33.8469  -15.1757   36.1991 N   0  0  0  0  0  0  0  0  0  0  0  0
   33.4820  -16.2168   35.4735 C   0  0  0  0  0  0  0  0  0  0  0  0
   34.4202  -17.1458   35.0661 C   0  0  0  0  0  0  0  0  0  0  0  0
   33.8621  -18.4899   34.1131 Cl  0  0  0  0  0  0  0  0  0  0  0  0
   38.3510  -19.6512   35.1892 C   0  0  0  0  0  0  0  0  0  0  0  0
   38.7478  -18.5844   34.1863 C   0  0  0  0  0  0  0  0  0  0  0  0
   37.4079  -18.0660   33.7326 C   0  0  0  0  0  0  0  0  0  0  0  0
   36.6857  -17.9560   34.9851 N   0  0  0  0  0  0  0  0  0  0  0  0
   37.1127  -19.0907   35.7875 C   0  0  0  0  0  0  0  0  0  0  0  0
   39.8947  -24.1862   33.8064 C   0  0  0  0  0  0  0  0  0  0  0  0
   38.9052  -23.1427   33.7675 N   0  0  0  0  0  0  0  0  0  0  0  0
   39.1110  -21.9481   34.4765 C   0  0  0  0  0  0  0  0  0  0  0  0
   40.1665  -21.8155   35.1365 O   0  0  0  0  0  0  0  0  0  0  0  0
   38.1782  -20.8773   34.4831 N   0  0  0  0  0  0  0  0  0  0  0  0
   38.0409  -23.2701   33.2175 H   0  0  0  0  0  0  0  0  0  0  0  0
   37.3028  -21.0012   33.9286 H   0  0  0  0  0  0  0  0  0  0  0  0
   35.4351  -13.8643   37.3276 N   0  0  0  0  0  0  0  0  0  0  0  0
   36.1260  -14.0098   38.1434 H   0  0  0  0  0  0  0  0  0  0  0  0
   34.9475  -12.5536   37.1975 C   0  0  0  0  0  0  0  0  0  0  0  0
   35.5287  -11.5957   36.4179 C   0  0  0  0  0  0  0  0  0  0  0  0
   35.0189  -10.2891   36.3058 C   0  0  0  0  0  0  0  0  0  0  0  0
   35.4108   -9.1689   35.6042 C   0  0  0  0  0  0  0  0  0  0  0  0
   34.4978   -8.1481   35.8924 C   0  0  0  0  0  0  0  0  0  0  0  0
   33.5954   -8.6581   36.7407 N   0  0  0  0  0  0  0  0  0  0  0  0
   33.9015   -9.9446   36.9941 C   0  0  0  0  0  0  0  0  0  0  0  0
   33.3000  -10.8980   37.7869 C   0  0  0  0  0  0  0  0  0  0  0  0
   33.7990  -12.1568   37.8891 C   0  0  0  0  0  0  0  0  0  0  0  0
   32.7887   -8.1469   37.1403 H   0  0  0  0  0  0  0  0  0  0  0  0
   33.1694  -13.0686   38.6869 O   0  0  0  0  0  0  0  0  0  0  0  0
   31.8135  -12.9416   39.0491 C   0  0  0  0  0  0  0  0  0  0  0  0
 13 14  1  0  0  0
 14 15  1  0  0  0
 15 16  2  0  0  0
 15 17  1  0  0  0
 17  8  1  0  0  0
  8  9  1  0  0  0
  9 10  1  0  0  0
 10 11  1  0  0  0
 11 12  1  0  0  0
 11  1  1  0  0  0
  1  2  2  0  0  0
  2  3  1  0  0  0
  3 20  1  0  0  0
 20 22  1  0  0  0
 22 23  2  0  0  0
 23 24  1  0  0  0
 24 25  1  0  0  0
 25 26  2  0  0  0
 26 27  1  0  0  0
 27 28  1  0  0  0
 28 29  1  0  0  0
 29 30  2  0  0  0
 30 32  1  0  0  0
 32 33  1  0  0  0
  3  4  2  0  0  0
  4  5  1  0  0  0
  5  6  2  0  0  0
  6  7  1  0  0  0
 12  8  1  0  0  0
  6  1  1  0  0  0
 30 22  1  0  0  0
 28 24  2  0  0  0
 14 18  1  0  0  0
 17 19  1  0  0  0
 20 21  1  0  0  0
 27 31  1  0  0  0
M  END
> <minimizedAffinity>
-8.01326

> <CNNscore>
0.4605452120

> <CNNaffinity>
6.4187598228

> <CNN_VS>
2.9561290741

> <CNNaffinity_variance>
0.0962815508

$$$$
[H]c1nc(N([H])c2c(OC([H])([H])[H])c([H])c3c(c2[H])c([H])c([H])n3[H])nc(N2C([H])([H])C([H])([H])[C@]([H])(N([H])C(=O)N([H])C([H])([H])[H])C2([H])[H])c1Cl


 33 36  0  0  0  0  0  0  0  0999 V2000
   35.8072  -18.3564   35.2535 C   0  0  0  0  0  0  0  0  0  0  0  0
   34.8787  -19.1204   34.6682 N   0  0  0  0  0  0  0  0  0  0  0  0
   33.5766  -18.8215   34.5698 C   0  0  0  0  0  0  0  0  0  0  0  0
   33.1542  -17.6364   35.1115 N   0  0  0  0  0  0  0  0  0  0  0  0
   34.0094  -16.8254   35.7071 C   0  0  0  0  0  0  0  0  0  0  0  0
   35.3466  -17.1630   35.7920 C   0  0  0  0  0  0  0  0  0  0  0  0
   36.4110  -16.0430   36.5912 Cl  0  0  0  0  0  0  0  0  0  0  0  0
   39.3624  -19.2302   34.5985 C   0  0  0  0  0  0  0  0  0  0  0  0
   38.9033  -20.1372   35.7245 C   0  0  0  0  0  0  0  0  0  0  0  0
   37.9160  -19.2611   36.4507 C   0  0  0  0  0  0  0  0  0  0  0  0
   37.1704  -18.6723   35.3552 N   0  0  0  0  0  0  0  0  0  0  0  0
   38.1403  -18.4419   34.2971 C   0  0  0  0  0  0  0  0  0  0  0  0
   44.1236  -17.7711   34.3478 C   0  0  0  0  0  0  0  0  0  0  0  0
   42.8355  -17.7116   34.9857 N   0  0  0  0  0  0  0  0  0  0  0  0
   41.7672  -18.4776   34.4915 C   0  0  0  0  0  0  0  0  0  0  0  0
   41.9620  -19.2059   33.4921 O   0  0  0  0  0  0  0  0  0  0  0  0
   40.4705  -18.4681   35.0705 N   0  0  0  0  0  0  0  0  0  0  0  0
   42.6939  -17.1052   35.8089 H   0  0  0  0  0  0  0  0  0  0  0  0
   40.3222  -17.8565   35.9032 H   0  0  0  0  0  0  0  0  0  0  0  0
   32.5897  -19.6053   33.9624 N   0  0  0  0  0  0  0  0  0  0  0  0
   32.3644  -19.3610   32.9361 H   0  0  0  0  0  0  0  0  0  0  0  0
   31.8418  -20.6705   34.4905 C   0  0  0  0  0  0  0  0  0  0  0  0
   32.1655  -21.9864   34.3275 C   0  0  0  0  0  0  0  0  0  0  0  0
   31.3977  -23.0345   34.8677 C   0  0  0  0  0  0  0  0  0  0  0  0
   31.5091  -24.4085   34.8455 C   0  0  0  0  0  0  0  0  0  0  0  0
   30.4314  -24.9322   35.5688 C   0  0  0  0  0  0  0  0  0  0  0  0
   29.7084  -23.8913   36.0026 N   0  0  0  0  0  0  0  0  0  0  0  0
   30.2826  -22.7472   35.5854 C   0  0  0  0  0  0  0  0  0  0  0  0
   29.9390  -21.4241   35.7611 C   0  0  0  0  0  0  0  0  0  0  0  0
   30.6861  -20.4189   35.2361 C   0  0  0  0  0  0  0  0  0  0  0  0
   28.8443  -23.9532   36.5693 H   0  0  0  0  0  0  0  0  0  0  0  0
   30.3072  -19.1225   35.4359 O   0  0  0  0  0  0  0  0  0  0  0  0
   28.9535  -18.7332   35.4812 C   0  0  0  0  0  0  0  0  0  0  0  0
 13 14  1  0  0  0
 14 15  1  0  0  0
 15 16  2  0  0  0
 15 17  1  0  0  0
 17  8  1  0  0  0
  8  9  1  0  0  0
  9 10  1  0  0  0
 10 11  1  0  0  0
 11 12  1  0  0  0
 11  1  1  0  0  0
  1  2  2  0  0  0
  2  3  1  0  0  0
  3 20  1  0  0  0
 20 22  1  0  0  0
 22 23  2  0  0  0
 23 24  1  0  0  0
 24 25  1  0  0  0
 25 26  2  0  0  0
 26 27  1  0  0  0
 27 28  1  0  0  0
 28 29  1  0  0  0
 29 30  2  0  0  0
 30 32  1  0  0  0
 32 33  1  0  0  0
  3  4  2  0  0  0
  4  5  1  0  0  0
  5  6  2  0  0  0
  6  7  1  0  0  0
 12  8  1  0  0  0
  6  1  1  0  0  0
 30 22  1  0  0  0
 28 24  2  0  0  0
 14 18  1  0  0  0
 17 19  1  0  0  0
 20 21  1  0  0  0
 27 31  1  0  0  0
M  END
> <minimizedAffinity>
-6.07701

> <CNNscore>
0.3713976443

> <CNNaffinity>
5.6420545578

> <CNN_VS>
2.0954458714

> <CNNaffinity_variance>
0.2087548524

$$$$
[H]c1nc(N([H])c2c(OC([H])([H])[H])c([H])c3c(c2[H])c([H])c([H])n3[H])nc(N2C([H])([H])C([H])([H])[C@]([H])(N([H])C(=O)N([H])C([H])([H])[H])C2([H])[H])c1Cl


 33 36  0  0  0  0  0  0  0  0999 V2000
   34.4027  -17.3825   35.5818 C   0  0  0  0  0  0  0  0  0  0  0  0
   34.2460  -16.3657   36.4362 N   0  0  0  0  0  0  0  0  0  0  0  0
   35.1861  -15.4656   36.7526 C   0  0  0  0  0  0  0  0  0  0  0  0
   36.4123  -15.5909   36.1550 N   0  0  0  0  0  0  0  0  0  0  0  0
   36.6476  -16.5685   35.2991 C   0  0  0  0  0  0  0  0  0  0  0  0
   35.6561  -17.4813   34.9938 C   0  0  0  0  0  0  0  0  0  0  0  0
   36.0424  -18.7402   33.8572 Cl  0  0  0  0  0  0  0  0  0  0  0  0
   32.2945  -20.4291   35.2560 C   0  0  0  0  0  0  0  0  0  0  0  0
   32.4684  -19.8815   33.8520 C   0  0  0  0  0  0  0  0  0  0  0  0
   32.5388  -18.3972   34.1002 C   0  0  0  0  0  0  0  0  0  0  0  0
   33.4160  -18.3241   35.2525 N   0  0  0  0  0  0  0  0  0  0  0  0
   33.0800  -19.4730   36.0775 C   0  0  0  0  0  0  0  0  0  0  0  0
   28.0054  -22.8839   35.9175 C   0  0  0  0  0  0  0  0  0  0  0  0
   28.7389  -21.6469   35.8830 N   0  0  0  0  0  0  0  0  0  0  0  0
   30.1134  -21.6492   35.5951 C   0  0  0  0  0  0  0  0  0  0  0  0
   30.6785  -22.7437   35.3715 O   0  0  0  0  0  0  0  0  0  0  0  0
   30.8992  -20.4674   35.5444 N   0  0  0  0  0  0  0  0  0  0  0  0
   28.2557  -20.7541   36.0701 H   0  0  0  0  0  0  0  0  0  0  0  0
   30.4153  -19.5620   35.7327 H   0  0  0  0  0  0  0  0  0  0  0  0
   35.0433  -14.3955   37.6424 N   0  0  0  0  0  0  0  0  0  0  0  0
   35.1609  -14.6373   38.6872 H   0  0  0  0  0  0  0  0  0  0  0  0
   34.7677  -13.0436   37.3797 C   0  0  0  0  0  0  0  0  0  0  0  0
   35.5093  -12.2609   36.5428 C   0  0  0  0  0  0  0  0  0  0  0  0
   35.2106  -10.9080   36.2976 C   0  0  0  0  0  0  0  0  0  0  0  0
   35.7886   -9.9296   35.5168 C   0  0  0  0  0  0  0  0  0  0  0  0
   35.0375   -8.7599   35.6793 C   0  0  0  0  0  0  0  0  0  0  0  0
   34.0462   -9.0468   36.5332 N   0  0  0  0  0  0  0  0  0  0  0  0
   34.1432  -10.3359   36.9094 C   0  0  0  0  0  0  0  0  0  0  0  0
   33.3818  -11.1099   37.7583 C   0  0  0  0  0  0  0  0  0  0  0  0
   33.6774  -12.4150   37.9891 C   0  0  0  0  0  0  0  0  0  0  0  0
   33.3186   -8.3844   36.8551 H   0  0  0  0  0  0  0  0  0  0  0  0
   32.8947  -13.1434   38.8383 O   0  0  0  0  0  0  0  0  0  0  0  0
   31.5390  -12.8323   39.0645 C   0  0  0  0  0  0  0  0  0  0  0  0
 13 14  1  0  0  0
 14 15  1  0  0  0
 15 16  2  0  0  0
 15 17  1  0  0  0
 17  8  1  0  0  0
  8  9  1  0  0  0
  9 10  1  0  0  0
 10 11  1  0  0  0
 11 12  1  0  0  0
 11  1  1  0  0  0
  1  2  2  0  0  0
  2  3  1  0  0  0
  3 20  1  0  0  0
 20 22  1  0  0  0
 22 23  2  0  0  0
 23 24  1  0  0  0
 24 25  1  0  0  0
 25 26  2  0  0  0
 26 27  1  0  0  0
 27 28  1  0  0  0
 28 29  1  0  0  0
 29 30  2  0  0  0
 30 32  1  0  0  0
 32 33  1  0  0  0
  3  4  2  0  0  0
  4  5  1  0  0  0
  5  6  2  0  0  0
  6  7  1  0  0  0
 12  8  1  0  0  0
  6  1  1  0  0  0
 30 22  1  0  0  0
 28 24  2  0  0  0
 14 18  1  0  0  0
 17 19  1  0  0  0
 20 21  1  0  0  0
 27 31  1  0  0  0
M  END
> <minimizedAffinity>
-7.44798

> <CNNscore>
0.3423509896

> <CNNaffinity>
6.2865114212

> <CNN_VS>
2.1521933079

> <CNNaffinity_variance>
0.0387818888

$$$$
[H]c1nc(N([H])c2c(OC([H])([H])[H])c([H])c3c(c2[H])c([H])c([H])n3[H])nc(N2C([H])([H])C([H])([H])[C@]([H])(N([H])C(=O)N([H])C([H])([H])[H])C2([H])[H])c1Cl


 33 36  0  0  0  0  0  0  0  0999 V2000
   35.1403  -14.3372   36.8174 C   0  0  0  0  0  0  0  0  0  0  0  0
   33.8234  -14.1098   36.7679 N   0  0  0  0  0  0  0  0  0  0  0  0
   33.2374  -12.9114   36.8898 C   0  0  0  0  0  0  0  0  0  0  0  0
   34.0484  -11.8242   37.0812 N   0  0  0  0  0  0  0  0  0  0  0  0
   35.3600  -11.9648   37.1418 C   0  0  0  0  0  0  0  0  0  0  0  0
   35.9337  -13.2151   37.0123 C   0  0  0  0  0  0  0  0  0  0  0  0
   37.6678  -13.3191   37.1029 Cl  0  0  0  0  0  0  0  0  0  0  0  0
   36.3418  -17.6581   35.6512 C   0  0  0  0  0  0  0  0  0  0  0  0
   35.8625  -17.8572   37.0767 C   0  0  0  0  0  0  0  0  0  0  0  0
   36.1913  -16.5288   37.7069 C   0  0  0  0  0  0  0  0  0  0  0  0
   35.7513  -15.5938   36.6897 N   0  0  0  0  0  0  0  0  0  0  0  0
   36.0729  -16.2166   35.4160 C   0  0  0  0  0  0  0  0  0  0  0  0
   40.1036  -20.2879   33.7035 C   0  0  0  0  0  0  0  0  0  0  0  0
   39.6216  -19.3214   34.6538 N   0  0  0  0  0  0  0  0  0  0  0  0
   38.2603  -18.9776   34.6821 C   0  0  0  0  0  0  0  0  0  0  0  0
   37.4847  -19.5277   33.8678 O   0  0  0  0  0  0  0  0  0  0  0  0
   37.7157  -18.0329   35.5918 N   0  0  0  0  0  0  0  0  0  0  0  0
   40.2763  -18.8782   35.3177 H   0  0  0  0  0  0  0  0  0  0  0  0
   38.3735  -17.5820   36.2651 H   0  0  0  0  0  0  0  0  0  0  0  0
   31.8636  -12.6516   36.8409 N   0  0  0  0  0  0  0  0  0  0  0  0
   31.4091  -12.7204   35.8649 H   0  0  0  0  0  0  0  0  0  0  0  0
   30.9794  -12.3120   37.8780 C   0  0  0  0  0  0  0  0  0  0  0  0
   30.6402  -13.1519   38.8990 C   0  0  0  0  0  0  0  0  0  0  0  0
   29.7508  -12.7857   39.9259 C   0  0  0  0  0  0  0  0  0  0  0  0
   29.2598  -13.4340   41.0392 C   0  0  0  0  0  0  0  0  0  0  0  0
   28.3964  -12.5505   41.6970 C   0  0  0  0  0  0  0  0  0  0  0  0
   28.3828  -11.4150   40.9867 N   0  0  0  0  0  0  0  0  0  0  0  0
   29.1943  -11.5482   39.9207 C   0  0  0  0  0  0  0  0  0  0  0  0
   29.5244  -10.6854   38.8979 C   0  0  0  0  0  0  0  0  0  0  0  0
   30.3839  -11.0473   37.9108 C   0  0  0  0  0  0  0  0  0  0  0  0
   27.8359  -10.5669   41.2180 H   0  0  0  0  0  0  0  0  0  0  0  0
   30.6818  -10.1593   36.9174 O   0  0  0  0  0  0  0  0  0  0  0  0
   31.4963   -9.0305   37.1373 C   0  0  0  0  0  0  0  0  0  0  0  0
 13 14  1  0  0  0
 14 15  1  0  0  0
 15 16  2  0  0  0
 15 17  1  0  0  0
 17  8  1  0  0  0
  8  9  1  0  0  0
  9 10  1  0  0  0
 10 11  1  0  0  0
 11 12  1  0  0  0
 11  1  1  0  0  0
  1  2  2  0  0  0
  2  3  1  0  0  0
  3 20  1  0  0  0
 20 22  1  0  0  0
 22 23  2  0  0  0
 23 24  1  0  0  0
 24 25  1  0  0  0
 25 26  2  0  0  0
 26 27  1  0  0  0
 27 28  1  0  0  0
 28 29  1  0  0  0
 29 30  2  0  0  0
 30 32  1  0  0  0
 32 33  1  0  0  0
  3  4  2  0  0  0
  4  5  1  0  0  0
  5  6  2  0  0  0
  6  7  1  0  0  0
 12  8  1  0  0  0
  6  1  1  0  0  0
 30 22  1  0  0  0
 28 24  2  0  0  0
 14 18  1  0  0  0
 17 19  1  0  0  0
 20 21  1  0  0  0
 27 31  1  0  0  0
M  END
> <minimizedAffinity>
-7.57030

> <CNNscore>
0.3108028173

> <CNNaffinity>
6.3619031906

> <CNN_VS>
1.9772974253

> <CNNaffinity_variance>
0.0524408445

$$$$
[H]c1nc(N([H])c2c(OC([H])([H])[H])c([H])c3c(c2[H])c([H])c([H])n3[H])nc(N2C([H])([H])C([H])([H])[C@]([H])(N([H])C(=O)N([H])C([H])([H])[H])C2([H])[H])c1Cl


 33 36  0  0  0  0  0  0  0  0999 V2000
   37.7050  -18.3494   36.2039 C   0  0  0  0  0  0  0  0  0  0  0  0
   37.3695  -17.4113   37.0960 N   0  0  0  0  0  0  0  0  0  0  0  0
   36.3706  -16.5297   36.9571 C   0  0  0  0  0  0  0  0  0  0  0  0
   35.6266  -16.5884   35.8084 N   0  0  0  0  0  0  0  0  0  0  0  0
   35.8941  -17.4864   34.8780 C   0  0  0  0  0  0  0  0  0  0  0  0
   36.9318  -18.3821   35.0516 C   0  0  0  0  0  0  0  0  0  0  0  0
   37.2219  -19.5350   33.7817 Cl  0  0  0  0  0  0  0  0  0  0  0  0
   39.9344  -21.1305   37.2653 C   0  0  0  0  0  0  0  0  0  0  0  0
   40.8177  -19.9037   37.1386 C   0  0  0  0  0  0  0  0  0  0  0  0
   40.1566  -19.1560   36.0101 C   0  0  0  0  0  0  0  0  0  0  0  0
   38.7522  -19.2713   36.3520 N   0  0  0  0  0  0  0  0  0  0  0  0
   38.5915  -20.6019   36.9152 C   0  0  0  0  0  0  0  0  0  0  0  0
   42.5847  -25.2511   36.3392 C   0  0  0  0  0  0  0  0  0  0  0  0
   41.7464  -24.1793   35.8723 N   0  0  0  0  0  0  0  0  0  0  0  0
   41.2689  -23.2133   36.7728 C   0  0  0  0  0  0  0  0  0  0  0  0
   41.5878  -23.3074   37.9797 O   0  0  0  0  0  0  0  0  0  0  0  0
   40.4384  -22.1295   36.3823 N   0  0  0  0  0  0  0  0  0  0  0  0
   41.4940  -24.1181   34.8732 H   0  0  0  0  0  0  0  0  0  0  0  0
   40.1804  -22.0631   35.3732 H   0  0  0  0  0  0  0  0  0  0  0  0
   36.0031  -15.5416   37.8768 N   0  0  0  0  0  0  0  0  0  0  0  0
   36.2615  -15.7406   38.9051 H   0  0  0  0  0  0  0  0  0  0  0  0
   35.3435  -14.3202   37.6626 C   0  0  0  0  0  0  0  0  0  0  0  0
   34.0473  -14.0792   38.0160 C   0  0  0  0  0  0  0  0  0  0  0  0
   33.4105  -12.8452   37.7892 C   0  0  0  0  0  0  0  0  0  0  0  0
   32.1445  -12.3634   38.0460 C   0  0  0  0  0  0  0  0  0  0  0  0
   32.0939  -11.0416   37.5887 C   0  0  0  0  0  0  0  0  0  0  0  0
   33.2992  -10.7579   37.0777 N   0  0  0  0  0  0  0  0  0  0  0  0
   34.0962  -11.8367   37.1944 C   0  0  0  0  0  0  0  0  0  0  0  0
   35.4064  -12.0606   36.8301 C   0  0  0  0  0  0  0  0  0  0  0  0
   36.0131  -13.2549   37.0529 C   0  0  0  0  0  0  0  0  0  0  0  0
   33.5773   -9.8531   36.6585 H   0  0  0  0  0  0  0  0  0  0  0  0
   37.3131  -13.4313   36.6749 O   0  0  0  0  0  0  0  0  0  0  0  0
   38.3866  -13.2626   37.5722 C   0  0  0  0  0  0  0  0  0  0  0  0
 13 14  1  0  0  0
 14 15  1  0  0  0
 15 16  2  0  0  0
 15 17  1  0  0  0
 17  8  1  0  0  0
  8  9  1  0  0  0
  9 10  1  0  0  0
 10 11  1  0  0  0
 11 12  1  0  0  0
 11  1  1  0  0  0
  1  2  2  0  0  0
  2  3  1  0  0  0
  3 20  1  0  0  0
 20 22  1  0  0  0
 22 23  2  0  0  0
 23 24  1  0  0  0
 24 25  1  0  0  0
 25 26  2  0  0  0
 26 27  1  0  0  0
 27 28  1  0  0  0
 28 29  1  0  0  0
 29 30  2  0  0  0
 30 32  1  0  0  0
 32 33  1  0  0  0
  3  4  2  0  0  0
  4  5  1  0  0  0
  5  6  2  0  0  0
  6  7  1  0  0  0
 12  8  1  0  0  0
  6  1  1  0  0  0
 30 22  1  0  0  0
 28 24  2  0  0  0
 14 18  1  0  0  0
 17 19  1  0  0  0
 20 21  1  0  0  0
 27 31  1  0  0  0
M  END
> <minimizedAffinity>
-6.11193

> <CNNscore>
0.2840684056

> <CNNaffinity>
5.7541565895

> <CNN_VS>
1.6345740557

> <CNNaffinity_variance>
0.2222838700

$$$$
[H]c1nc(N([H])c2c(OC([H])([H])[H])c([H])c3c(c2[H])c([H])c([H])n3[H])nc(N2C([H])([H])C([H])([H])[C@]([H])(N([H])C(=O)N([H])C([H])([H])[H])C2([H])[H])c1Cl


 33 36  0  0  0  0  0  0  0  0999 V2000
   30.7607  -12.7708   39.1513 C   0  0  0  0  0  0  0  0  0  0  0  0
   32.0185  -13.1211   38.8624 N   0  0  0  0  0  0  0  0  0  0  0  0
   32.7912  -12.5438   37.9329 C   0  0  0  0  0  0  0  0  0  0  0  0
   32.2548  -11.5078   37.2150 N   0  0  0  0  0  0  0  0  0  0  0  0
   31.0187  -11.1014   37.4400 C   0  0  0  0  0  0  0  0  0  0  0  0
   30.2473  -11.7182   38.4063 C   0  0  0  0  0  0  0  0  0  0  0  0
   28.6290  -11.1260   38.6444 Cl  0  0  0  0  0  0  0  0  0  0  0  0
   28.0937  -14.5879   40.9999 C   0  0  0  0  0  0  0  0  0  0  0  0
   28.3622  -13.3170   41.7834 C   0  0  0  0  0  0  0  0  0  0  0  0
   29.8348  -13.1062   41.5448 C   0  0  0  0  0  0  0  0  0  0  0  0
   29.9536  -13.3777   40.1254 N   0  0  0  0  0  0  0  0  0  0  0  0
   29.0304  -14.4674   39.8538 C   0  0  0  0  0  0  0  0  0  0  0  0
   27.7954  -19.4378   42.1181 C   0  0  0  0  0  0  0  0  0  0  0  0
   28.2105  -18.1043   42.4629 N   0  0  0  0  0  0  0  0  0  0  0  0
   27.9545  -17.0368   41.5870 C   0  0  0  0  0  0  0  0  0  0  0  0
   27.3620  -17.2725   40.5097 O   0  0  0  0  0  0  0  0  0  0  0  0
   28.3354  -15.6967   41.8624 N   0  0  0  0  0  0  0  0  0  0  0  0
   28.6979  -17.9292   43.3559 H   0  0  0  0  0  0  0  0  0  0  0  0
   28.8284  -15.5145   42.7640 H   0  0  0  0  0  0  0  0  0  0  0  0
   34.1078  -12.8941   37.6151 N   0  0  0  0  0  0  0  0  0  0  0  0
   34.8558  -12.1478   37.8328 H   0  0  0  0  0  0  0  0  0  0  0  0
   34.6074  -14.0795   37.0511 C   0  0  0  0  0  0  0  0  0  0  0  0
   33.8505  -14.9668   36.3420 C   0  0  0  0  0  0  0  0  0  0  0  0
   34.3770  -16.1480   35.7877 C   0  0  0  0  0  0  0  0  0  0  0  0
   33.8361  -17.1793   35.0496 C   0  0  0  0  0  0  0  0  0  0  0  0
   34.8634  -18.0906   34.7795 C   0  0  0  0  0  0  0  0  0  0  0  0
   35.9762  -17.6048   35.3451 N   0  0  0  0  0  0  0  0  0  0  0  0
   35.6922  -16.4375   35.9530 C   0  0  0  0  0  0  0  0  0  0  0  0
   36.4732  -15.5538   36.6661 C   0  0  0  0  0  0  0  0  0  0  0  0
   35.9566  -14.4160   37.1977 C   0  0  0  0  0  0  0  0  0  0  0  0
   36.9089  -18.0534   35.3207 H   0  0  0  0  0  0  0  0  0  0  0  0
   36.7684  -13.5696   37.8969 O   0  0  0  0  0  0  0  0  0  0  0  0
   38.1458  -13.4517   37.6232 C   0  0  0  0  0  0  0  0  0  0  0  0
 13 14  1  0  0  0
 14 15  1  0  0  0
 15 16  2  0  0  0
 15 17  1  0  0  0
 17  8  1  0  0  0
  8  9  1  0  0  0
  9 10  1  0  0  0
 10 11  1  0  0  0
 11 12  1  0  0  0
 11  1  1  0  0  0
  1  2  2  0  0  0
  2  3  1  0  0  0
  3 20  1  0  0  0
 20 22  1  0  0  0
 22 23  2  0  0  0
 23 24  1  0  0  0
 24 25  1  0  0  0
 25 26  2  0  0  0
 26 27  1  0  0  0
 27 28  1  0  0  0
 28 29  1  0  0  0
 29 30  2  0  0  0
 30 32  1  0  0  0
 32 33  1  0  0  0
  3  4  2  0  0  0
  4  5  1  0  0  0
  5  6  2  0  0  0
  6  7  1  0  0  0
 12  8  1  0  0  0
  6  1  1  0  0  0
 30 22  1  0  0  0
 28 24  2  0  0  0
 14 18  1  0  0  0
 17 19  1  0  0  0
 20 21  1  0  0  0
 27 31  1  0  0  0
M  END
> <minimizedAffinity>
-7.66234

> <CNNscore>
0.2650878429

> <CNNaffinity>
5.9001808167

> <CNN_VS>
1.5640661716

> <CNNaffinity_variance>
0.3303730488

$$$$
[H]c1nc(N([H])c2c(OC([H])([H])[H])c([H])c3c(c2[H])c([H])c([H])n3[H])nc(N2C([H])([H])C([H])([H])[C@]([H])(N([H])C(=O)N([H])C([H])([H])[H])C2([H])[H])c1Cl


 33 36  0  0  0  0  0  0  0  0999 V2000
   34.2952  -14.5429   36.4259 C   0  0  0  0  0  0  0  0  0  0  0  0
   33.7570  -15.6679   35.9431 N   0  0  0  0  0  0  0  0  0  0  0  0
   34.4396  -16.7626   35.5824 C   0  0  0  0  0  0  0  0  0  0  0  0
   35.8025  -16.7343   35.7167 N   0  0  0  0  0  0  0  0  0  0  0  0
   36.4108  -15.6604   36.1861 C   0  0  0  0  0  0  0  0  0  0  0  0
   35.6777  -14.5469   36.5495 C   0  0  0  0  0  0  0  0  0  0  0  0
   36.5507  -13.1715   37.1596 Cl  0  0  0  0  0  0  0  0  0  0  0  0
   32.8709  -11.6085   38.2126 C   0  0  0  0  0  0  0  0  0  0  0  0
   31.6956  -12.3354   37.5868 C   0  0  0  0  0  0  0  0  0  0  0  0
   32.3052  -12.8910   36.3261 C   0  0  0  0  0  0  0  0  0  0  0  0
   33.5775  -13.3977   36.8026 N   0  0  0  0  0  0  0  0  0  0  0  0
   34.0258  -12.4517   37.8115 C   0  0  0  0  0  0  0  0  0  0  0  0
   35.0384   -7.8964   35.6861 C   0  0  0  0  0  0  0  0  0  0  0  0
   33.9294   -8.3993   36.4521 N   0  0  0  0  0  0  0  0  0  0  0  0
   33.9477   -9.7162   36.9394 C   0  0  0  0  0  0  0  0  0  0  0  0
   34.9432  -10.4342   36.6929 O   0  0  0  0  0  0  0  0  0  0  0  0
   32.8891  -10.2781   37.7013 N   0  0  0  0  0  0  0  0  0  0  0  0
   33.1171   -7.7923   36.6453 H   0  0  0  0  0  0  0  0  0  0  0  0
   32.0655   -9.6684   37.8994 H   0  0  0  0  0  0  0  0  0  0  0  0
   33.8970  -17.9485   35.0759 N   0  0  0  0  0  0  0  0  0  0  0  0
   33.6426  -17.9360   34.0276 H   0  0  0  0  0  0  0  0  0  0  0  0
   33.6311  -19.1623   35.7305 C   0  0  0  0  0  0  0  0  0  0  0  0
   34.5961  -19.9924   36.2232 C   0  0  0  0  0  0  0  0  0  0  0  0
   34.3014  -21.2040   36.8751 C   0  0  0  0  0  0  0  0  0  0  0  0
   35.0741  -22.1923   37.4469 C   0  0  0  0  0  0  0  0  0  0  0  0
   34.2075  -23.1702   37.9483 C   0  0  0  0  0  0  0  0  0  0  0  0
   32.9603  -22.7643   37.6767 N   0  0  0  0  0  0  0  0  0  0  0  0
   33.0081  -21.5833   37.0318 C   0  0  0  0  0  0  0  0  0  0  0  0
   32.0191  -20.7585   36.5410 C   0  0  0  0  0  0  0  0  0  0  0  0
   32.3127  -19.5907   35.9131 C   0  0  0  0  0  0  0  0  0  0  0  0
   32.0941  -23.2752   37.9224 H   0  0  0  0  0  0  0  0  0  0  0  0
   31.2998  -18.8052   35.4429 O   0  0  0  0  0  0  0  0  0  0  0  0
   30.1228  -19.3474   34.8891 C   0  0  0  0  0  0  0  0  0  0  0  0
 13 14  1  0  0  0
 14 15  1  0  0  0
 15 16  2  0  0  0
 15 17  1  0  0  0
 17  8  1  0  0  0
  8  9  1  0  0  0
  9 10  1  0  0  0
 10 11  1  0  0  0
 11 12  1  0  0  0
 11  1  1  0  0  0
  1  2  2  0  0  0
  2  3  1  0  0  0
  3 20  1  0  0  0
 20 22  1  0  0  0
 22 23  2  0  0  0
 23 24  1  0  0  0
 24 25  1  0  0  0
 25 26  2  0  0  0
 26 27  1  0  0  0
 27 28  1  0  0  0
 28 29  1  0  0  0
 29 30  2  0  0  0
 30 32  1  0  0  0
 32 33  1  0  0  0
  3  4  2  0  0  0
  4  5  1  0  0  0
  5  6  2  0  0  0
  6  7  1  0  0  0
 12  8  1  0  0  0
  6  1  1  0  0  0
 30 22  1  0  0  0
 28 24  2  0  0  0
 14 18  1  0  0  0
 17 19  1  0  0  0
 20 21  1  0  0  0
 27 31  1  0  0  0
M  END
> <minimizedAffinity>
-7.64516

> <CNNscore>
0.2594984770

> <CNNaffinity>
6.3628263474

> <CNN_VS>
1.6511437893

> <CNNaffinity_variance>
0.1100129113

$$$$
[H]c1nc(N([H])c2c(OC([H])([H])[H])c([H])c3c(c2[H])c([H])c([H])n3[H])nc(N2C([H])([H])C([H])([H])[C@]([H])(N([H])C(=O)N([H])C([H])([H])[H])C2([H])[H])c1Cl


 33 36  0  0  0  0  0  0  0  0999 V2000
   34.2196  -12.8420   36.8960 C   0  0  0  0  0  0  0  0  0  0  0  0
   34.2501  -14.1686   37.0619 N   0  0  0  0  0  0  0  0  0  0  0  0
   35.2287  -14.9812   36.6420 C   0  0  0  0  0  0  0  0  0  0  0  0
   36.2894  -14.4129   35.9877 N   0  0  0  0  0  0  0  0  0  0  0  0
   36.3347  -13.1090   35.7838 C   0  0  0  0  0  0  0  0  0  0  0  0
   35.3088  -12.2978   36.2296 C   0  0  0  0  0  0  0  0  0  0  0  0
   35.4408  -10.5905   35.9235 Cl  0  0  0  0  0  0  0  0  0  0  0  0
   31.0215  -11.0078   37.3859 C   0  0  0  0  0  0  0  0  0  0  0  0
   32.1199   -9.9619   37.4204 C   0  0  0  0  0  0  0  0  0  0  0  0
   33.2619  -10.7261   38.0381 C   0  0  0  0  0  0  0  0  0  0  0  0
   33.1929  -11.9933   37.3367 N   0  0  0  0  0  0  0  0  0  0  0  0
   31.7768  -12.2648   37.1513 C   0  0  0  0  0  0  0  0  0  0  0  0
   27.0022  -11.8735   40.2066 C   0  0  0  0  0  0  0  0  0  0  0  0
   28.3388  -11.3596   40.0687 N   0  0  0  0  0  0  0  0  0  0  0  0
   29.0000  -11.4354   38.8321 C   0  0  0  0  0  0  0  0  0  0  0  0
   28.4032  -11.9561   37.8627 O   0  0  0  0  0  0  0  0  0  0  0  0
   30.3179  -10.9490   38.6241 N   0  0  0  0  0  0  0  0  0  0  0  0
   28.8150  -10.9335   40.8795 H   0  0  0  0  0  0  0  0  0  0  0  0
   30.8037  -10.5173   39.4407 H   0  0  0  0  0  0  0  0  0  0  0  0
   35.2803  -16.3698   36.8050 N   0  0  0  0  0  0  0  0  0  0  0  0
   35.7442  -16.7168   37.7151 H   0  0  0  0  0  0  0  0  0  0  0  0
   34.8163  -17.3885   35.9567 C   0  0  0  0  0  0  0  0  0  0  0  0
   33.5062  -17.7558   35.8489 C   0  0  0  0  0  0  0  0  0  0  0  0
   33.0685  -18.7810   34.9905 C   0  0  0  0  0  0  0  0  0  0  0  0
   31.8343  -19.3264   34.7072 C   0  0  0  0  0  0  0  0  0  0  0  0
   32.0254  -20.3345   33.7554 C   0  0  0  0  0  0  0  0  0  0  0  0
   33.3374  -20.3776   33.4891 N   0  0  0  0  0  0  0  0  0  0  0  0
   33.9713  -19.4471   34.2273 C   0  0  0  0  0  0  0  0  0  0  0  0
   35.2992  -19.0907   34.3221 C   0  0  0  0  0  0  0  0  0  0  0  0
   35.7128  -18.0998   35.1534 C   0  0  0  0  0  0  0  0  0  0  0  0
   33.7952  -21.0232   32.8216 H   0  0  0  0  0  0  0  0  0  0  0  0
   37.0390  -17.7809   35.2144 O   0  0  0  0  0  0  0  0  0  0  0  0
   38.0175  -18.4922   34.4915 C   0  0  0  0  0  0  0  0  0  0  0  0
 13 14  1  0  0  0
 14 15  1  0  0  0
 15 16  2  0  0  0
 15 17  1  0  0  0
 17  8  1  0  0  0
  8  9  1  0  0  0
  9 10  1  0  0  0
 10 11  1  0  0  0
 11 12  1  0  0  0
 11  1  1  0  0  0
  1  2  2  0  0  0
  2  3  1  0  0  0
  3 20  1  0  0  0
 20 22  1  0  0  0
 22 23  2  0  0  0
 23 24  1  0  0  0
 24 25  1  0  0  0
 25 26  2  0  0  0
 26 27  1  0  0  0
 27 28  1  0  0  0
 28 29  1  0  0  0
 29 30  2  0  0  0
 30 32  1  0  0  0
 32 33  1  0  0  0
  3  4  2  0  0  0
  4  5  1  0  0  0
  5  6  2  0  0  0
  6  7  1  0  0  0
 12  8  1  0  0  0
  6  1  1  0  0  0
 30 22  1  0  0  0
 28 24  2  0  0  0
 14 18  1  0  0  0
 17 19  1  0  0  0
 20 21  1  0  0  0
 27 31  1  0  0  0
M  END
> <minimizedAffinity>
-7.75462

> <CNNscore>
0.2582313120

> <CNNaffinity>
6.6448960304

> <CNN_VS>
1.7159202099

> <CNNaffinity_variance>
0.1183605641

$$$$
[H]c1nc(N([H])c2c(OC([H])([H])[H])c([H])c3c(c2[H])c([H])c([H])n3[H])nc(N2C([H])([H])C([H])([H])[C@]([H])(N([H])C(=O)N([H])C([H])([H])[H])C2([H])[H])c1Cl


 33 36  0  0  0  0  0  0  0  0999 V2000
   35.9714  -17.3357   35.7887 C   0  0  0  0  0  0  0  0  0  0  0  0
   36.0076  -16.2888   36.6201 N   0  0  0  0  0  0  0  0  0  0  0  0
   35.0200  -15.4007   36.7937 C   0  0  0  0  0  0  0  0  0  0  0  0
   33.8748  -15.5731   36.0621 N   0  0  0  0  0  0  0  0  0  0  0  0
   33.7600  -16.5827   35.2187 C   0  0  0  0  0  0  0  0  0  0  0  0
   34.7976  -17.4819   35.0626 C   0  0  0  0  0  0  0  0  0  0  0  0
   34.5709  -18.7853   33.9331 Cl  0  0  0  0  0  0  0  0  0  0  0  0
   38.6715  -19.5045   34.4331 C   0  0  0  0  0  0  0  0  0  0  0  0
   37.8039  -20.3985   35.2989 C   0  0  0  0  0  0  0  0  0  0  0  0
   37.3483  -19.4474   36.3748 C   0  0  0  0  0  0  0  0  0  0  0  0
   37.0078  -18.2642   35.6088 N   0  0  0  0  0  0  0  0  0  0  0  0
   37.9923  -18.1883   34.5418 C   0  0  0  0  0  0  0  0  0  0  0  0
   43.4637  -18.1298   34.3599 C   0  0  0  0  0  0  0  0  0  0  0  0
   42.3950  -18.8869   34.9550 N   0  0  0  0  0  0  0  0  0  0  0  0
   41.0999  -18.8235   34.4159 C   0  0  0  0  0  0  0  0  0  0  0  0
   40.9007  -18.0989   33.4146 O   0  0  0  0  0  0  0  0  0  0  0  0
   39.9987  -19.5429   34.9514 N   0  0  0  0  0  0  0  0  0  0  0  0
   42.5784  -19.4790   35.7805 H   0  0  0  0  0  0  0  0  0  0  0  0
   40.1789  -20.1431   35.7860 H   0  0  0  0  0  0  0  0  0  0  0  0
   35.0371  -14.3000   37.6571 N   0  0  0  0  0  0  0  0  0  0  0  0
   35.3207  -14.5098   38.6766 H   0  0  0  0  0  0  0  0  0  0  0  0
   34.7386  -12.9527   37.3957 C   0  0  0  0  0  0  0  0  0  0  0  0
   35.4815  -12.1497   36.5794 C   0  0  0  0  0  0  0  0  0  0  0  0
   35.1596  -10.8019   36.3350 C   0  0  0  0  0  0  0  0  0  0  0  0
   35.7335   -9.8071   35.5723 C   0  0  0  0  0  0  0  0  0  0  0  0
   34.9545   -8.6544   35.7247 C   0  0  0  0  0  0  0  0  0  0  0  0
   33.9511   -8.9671   36.5552 N   0  0  0  0  0  0  0  0  0  0  0  0
   34.0672  -10.2561   36.9264 C   0  0  0  0  0  0  0  0  0  0  0  0
   33.3042  -11.0509   37.7543 C   0  0  0  0  0  0  0  0  0  0  0  0
   33.6223  -12.3509   37.9845 C   0  0  0  0  0  0  0  0  0  0  0  0
   33.2028   -8.3222   36.8647 H   0  0  0  0  0  0  0  0  0  0  0  0
   32.8370  -13.1005   38.8125 O   0  0  0  0  0  0  0  0  0  0  0  0
   31.4849  -12.7859   39.0548 C   0  0  0  0  0  0  0  0  0  0  0  0
 13 14  1  0  0  0
 14 15  1  0  0  0
 15 16  2  0  0  0
 15 17  1  0  0  0
 17  8  1  0  0  0
  8  9  1  0  0  0
  9 10  1  0  0  0
 10 11  1  0  0  0
 11 12  1  0  0  0
 11  1  1  0  0  0
  1  2  2  0  0  0
  2  3  1  0  0  0
  3 20  1  0  0  0
 20 22  1  0  0  0
 22 23  2  0  0  0
 23 24  1  0  0  0
 24 25  1  0  0  0
 25 26  2  0  0  0
 26 27  1  0  0  0
 27 28  1  0  0  0
 28 29  1  0  0  0
 29 30  2  0  0  0
 30 32  1  0  0  0
 32 33  1  0  0  0
  3  4  2  0  0  0
  4  5  1  0  0  0
  5  6  2  0  0  0
  6  7  1  0  0  0
 12  8  1  0  0  0
  6  1  1  0  0  0
 30 22  1  0  0  0
 28 24  2  0  0  0
 14 18  1  0  0  0
 17 19  1  0  0  0
 20 21  1  0  0  0
 27 31  1  0  0  0
M  END
> <minimizedAffinity>
-7.30434

> <CNNscore>
0.2526560426

> <CNNaffinity>
6.2169680595

> <CNN_VS>
1.5707545280

> <CNNaffinity_variance>
0.0690641403

$$$$
[H]c1c([H])c([H])c(C([H])([H])C([H])([H])[H])c(-c2c3c([H])c(C#N)c([H])c([H])c3nn2[H])c1[H]


 20 22  0  0  0  0  0  0  0  0999 V2000
   35.3641  -16.1821   35.6375 C   0  0  0  0  0  0  0  0  0  0  0  0
   36.6835  -16.4363   35.4361 N   0  0  0  0  0  0  0  0  0  0  0  0
   36.7738  -17.6206   34.9012 N   0  0  0  0  0  0  0  0  0  0  0  0
   35.5560  -18.1984   34.7316 C   0  0  0  0  0  0  0  0  0  0  0  0
   35.1396  -19.4018   34.2360 C   0  0  0  0  0  0  0  0  0  0  0  0
   33.7977  -19.6918   34.2139 C   0  0  0  0  0  0  0  0  0  0  0  0
   32.8898  -18.7658   34.6925 C   0  0  0  0  0  0  0  0  0  0  0  0
   33.2931  -17.5664   35.1853 C   0  0  0  0  0  0  0  0  0  0  0  0
   34.6492  -17.2592   35.2103 C   0  0  0  0  0  0  0  0  0  0  0  0
   37.5207  -15.8110   35.6481 H   0  0  0  0  0  0  0  0  0  0  0  0
   35.7348  -14.2801   37.1591 C   0  0  0  0  0  0  0  0  0  0  0  0
   35.1970  -13.0874   37.6886 C   0  0  0  0  0  0  0  0  0  0  0  0
   33.9431  -12.6280   37.3553 C   0  0  0  0  0  0  0  0  0  0  0  0
   33.1450  -13.3239   36.4773 C   0  0  0  0  0  0  0  0  0  0  0  0
   33.6490  -14.4779   35.9577 C   0  0  0  0  0  0  0  0  0  0  0  0
   34.9356  -14.9649   36.2860 C   0  0  0  0  0  0  0  0  0  0  0  0
   38.1027  -13.5329   37.6847 C   0  0  0  0  0  0  0  0  0  0  0  0
   37.0813  -14.6033   37.6153 C   0  0  0  0  0  0  0  0  0  0  0  0
   31.5020  -19.0935   34.6605 C   0  0  0  0  0  0  0  0  0  0  0  0
   30.3661  -19.3832   34.6480 N   0  0  0  0  0  0  0  0  0  0  0  0
 17 18  1  0  0  0
 18 11  1  0  0  0
 11 12  2  0  0  0
 12 13  1  0  0  0
 13 14  2  0  0  0
 14 15  1  0  0  0
 15 16  2  0  0  0
 16  1  1  0  0  0
  1  2  1  0  0  0
  2  3  1  0  0  0
  3  4  2  0  0  0
  4  5  1  0  0  0
  5  6  2  0  0  0
  6  7  1  0  0  0
  7  8  2  0  0  0
  8  9  1  0  0  0
  7 19  1  0  0  0
 19 20  3  0  0  0
 16 11  1  0  0  0
  9  1  2  0  0  0
  9  4  1  0  0  0
  2 10  1  0  0  0
M  END
> <minimizedAffinity>
-7.74134

> <CNNscore>
0.8146343827

> <CNNaffinity>
4.8517088890

> <CNN_VS>
3.9523689747

> <CNNaffinity_variance>
0.5448335409

$$$$
[H]c1c([H])c([H])c(C([H])([H])C([H])([H])[H])c(-c2c3c([H])c(C#N)c([H])c([H])c3nn2[H])c1[H]


 20 22  0  0  0  0  0  0  0  0999 V2000
   34.7051  -16.2758   35.9480 C   0  0  0  0  0  0  0  0  0  0  0  0
   33.3485  -16.3306   36.0018 N   0  0  0  0  0  0  0  0  0  0  0  0
   32.9794  -17.4229   35.3956 N   0  0  0  0  0  0  0  0  0  0  0  0
   34.0399  -18.1243   34.9169 C   0  0  0  0  0  0  0  0  0  0  0  0
   34.1653  -19.2934   34.2206 C   0  0  0  0  0  0  0  0  0  0  0  0
   35.4167  -19.7351   33.8683 C   0  0  0  0  0  0  0  0  0  0  0  0
   36.5285  -18.9930   34.2211 C   0  0  0  0  0  0  0  0  0  0  0  0
   36.4147  -17.8312   34.9146 C   0  0  0  0  0  0  0  0  0  0  0  0
   35.1530  -17.3744   35.2802 C   0  0  0  0  0  0  0  0  0  0  0  0
   32.6729  -15.6407   36.4539 H   0  0  0  0  0  0  0  0  0  0  0  0
   34.8702  -13.8888   36.5356 C   0  0  0  0  0  0  0  0  0  0  0  0
   35.6743  -12.8818   37.1113 C   0  0  0  0  0  0  0  0  0  0  0  0
   36.9409  -13.1285   37.5903 C   0  0  0  0  0  0  0  0  0  0  0  0
   37.4882  -14.3888   37.5265 C   0  0  0  0  0  0  0  0  0  0  0  0
   36.7253  -15.3722   36.9728 C   0  0  0  0  0  0  0  0  0  0  0  0
   35.4213  -15.1390   36.4775 C   0  0  0  0  0  0  0  0  0  0  0  0
   32.6359  -12.8087   37.0675 C   0  0  0  0  0  0  0  0  0  0  0  0
   33.5527  -13.4467   36.0947 C   0  0  0  0  0  0  0  0  0  0  0  0
   37.8164  -19.4732   33.8403 C   0  0  0  0  0  0  0  0  0  0  0  0
   38.8665  -19.8715   33.5041 N   0  0  0  0  0  0  0  0  0  0  0  0
 17 18  1  0  0  0
 18 11  1  0  0  0
 11 12  2  0  0  0
 12 13  1  0  0  0
 13 14  2  0  0  0
 14 15  1  0  0  0
 15 16  2  0  0  0
 16  1  1  0  0  0
  1  2  1  0  0  0
  2  3  1  0  0  0
  3  4  2  0  0  0
  4  5  1  0  0  0
  5  6  2  0  0  0
  6  7  1  0  0  0
  7  8  2  0  0  0
  8  9  1  0  0  0
  7 19  1  0  0  0
 19 20  3  0  0  0
 16 11  1  0  0  0
  9  1  2  0  0  0
  9  4  1  0  0  0
  2 10  1  0  0  0
M  END
> <minimizedAffinity>
-6.49698

> <CNNscore>
0.7876397371

> <CNNaffinity>
4.9586439133

> <CNN_VS>
3.9056251049

> <CNNaffinity_variance>
0.2116114795

$$$$
[H]c1c([H])c([H])c(C([H])([H])C([H])([H])[H])c(-c2c3c([H])c(C#N)c([H])c([H])c3nn2[H])c1[H]


 20 22  0  0  0  0  0  0  0  0999 V2000
   36.1000  -16.3236   37.0249 C   0  0  0  0  0  0  0  0  0  0  0  0
   37.4481  -16.1565   37.0538 N   0  0  0  0  0  0  0  0  0  0  0  0
   37.6816  -14.8754   37.0223 N   0  0  0  0  0  0  0  0  0  0  0  0
   36.5351  -14.1487   36.9656 C   0  0  0  0  0  0  0  0  0  0  0  0
   36.2640  -12.8107   36.9070 C   0  0  0  0  0  0  0  0  0  0  0  0
   34.9579  -12.3915   36.8457 C   0  0  0  0  0  0  0  0  0  0  0  0
   33.9390  -13.3257   36.8432 C   0  0  0  0  0  0  0  0  0  0  0  0
   34.1977  -14.6574   36.9031 C   0  0  0  0  0  0  0  0  0  0  0  0
   35.5162  -15.0950   36.9688 C   0  0  0  0  0  0  0  0  0  0  0  0
   38.2092  -16.9015   37.1051 H   0  0  0  0  0  0  0  0  0  0  0  0
   34.7666  -18.0778   35.9225 C   0  0  0  0  0  0  0  0  0  0  0  0
   34.2935  -19.4053   35.9993 C   0  0  0  0  0  0  0  0  0  0  0  0
   34.5652  -20.2279   37.0689 C   0  0  0  0  0  0  0  0  0  0  0  0
   35.3217  -19.7841   38.1284 C   0  0  0  0  0  0  0  0  0  0  0  0
   35.7854  -18.5045   38.0703 C   0  0  0  0  0  0  0  0  0  0  0  0
   35.5190  -17.6450   36.9792 C   0  0  0  0  0  0  0  0  0  0  0  0
   33.1156  -17.6925   34.0338 C   0  0  0  0  0  0  0  0  0  0  0  0
   34.3905  -17.3600   34.7104 C   0  0  0  0  0  0  0  0  0  0  0  0
   32.5914  -12.8633   36.7760 C   0  0  0  0  0  0  0  0  0  0  0  0
   31.4844  -12.4786   36.7454 N   0  0  0  0  0  0  0  0  0  0  0  0
 17 18  1  0  0  0
 18 11  1  0  0  0
 11 12  2  0  0  0
 12 13  1  0  0  0
 13 14  2  0  0  0
 14 15  1  0  0  0
 15 16  2  0  0  0
 16  1  1  0  0  0
  1  2  1  0  0  0
  2  3  1  0  0  0
  3  4  2  0  0  0
  4  5  1  0  0  0
  5  6  2  0  0  0
  6  7  1  0  0  0
  7  8  2  0  0  0
  8  9  1  0  0  0
  7 19  1  0  0  0
 19 20  3  0  0  0
 16 11  1  0  0  0
  9  1  2  0  0  0
  9  4  1  0  0  0
  2 10  1  0  0  0
M  END
> <minimizedAffinity>
-5.98023

> <CNNscore>
0.7551100850

> <CNNaffinity>
4.9725227356

> <CNN_VS>
3.7548019886

> <CNNaffinity_variance>
0.3376148343

$$$$
[H]c1c([H])c([H])c(C([H])([H])C([H])([H])[H])c(-c2c3c([H])c(C#N)c([H])c([H])c3nn2[H])c1[H]


 20 22  0  0  0  0  0  0  0  0999 V2000
   32.4852  -19.6222   35.4709 C   0  0  0  0  0  0  0  0  0  0  0  0
   31.6489  -18.5515   35.4905 N   0  0  0  0  0  0  0  0  0  0  0  0
   30.4303  -19.0109   35.5230 N   0  0  0  0  0  0  0  0  0  0  0  0
   30.3965  -20.3691   35.5199 C   0  0  0  0  0  0  0  0  0  0  0  0
   29.3881  -21.2911   35.5351 C   0  0  0  0  0  0  0  0  0  0  0  0
   29.6995  -22.6283   35.5132 C   0  0  0  0  0  0  0  0  0  0  0  0
   31.0242  -23.0216   35.4754 C   0  0  0  0  0  0  0  0  0  0  0  0
   32.0335  -22.1133   35.4620 C   0  0  0  0  0  0  0  0  0  0  0  0
   31.7317  -20.7560   35.4871 C   0  0  0  0  0  0  0  0  0  0  0  0
   31.8967  -17.5145   35.4925 H   0  0  0  0  0  0  0  0  0  0  0  0
   34.7698  -19.7560   36.3836 C   0  0  0  0  0  0  0  0  0  0  0  0
   36.1435  -19.5623   36.1235 C   0  0  0  0  0  0  0  0  0  0  0  0
   36.6095  -19.0868   34.9189 C   0  0  0  0  0  0  0  0  0  0  0  0
   35.7419  -18.7730   33.8988 C   0  0  0  0  0  0  0  0  0  0  0  0
   34.4123  -18.9534   34.1340 C   0  0  0  0  0  0  0  0  0  0  0  0
   33.9142  -19.4430   35.3638 C   0  0  0  0  0  0  0  0  0  0  0  0
   35.3066  -19.8829   38.8610 C   0  0  0  0  0  0  0  0  0  0  0  0
   34.4627  -20.2783   37.7098 C   0  0  0  0  0  0  0  0  0  0  0  0
   31.3198  -24.4167   35.4506 C   0  0  0  0  0  0  0  0  0  0  0  0
   31.5512  -25.5660   35.4523 N   0  0  0  0  0  0  0  0  0  0  0  0
 17 18  1  0  0  0
 18 11  1  0  0  0
 11 12  2  0  0  0
 12 13  1  0  0  0
 13 14  2  0  0  0
 14 15  1  0  0  0
 15 16  2  0  0  0
 16  1  1  0  0  0
  1  2  1  0  0  0
  2  3  1  0  0  0
  3  4  2  0  0  0
  4  5  1  0  0  0
  5  6  2  0  0  0
  6  7  1  0  0  0
  7  8  2  0  0  0
  8  9  1  0  0  0
  7 19  1  0  0  0
 19 20  3  0  0  0
 16 11  1  0  0  0
  9  1  2  0  0  0
  9  4  1  0  0  0
  2 10  1  0  0  0
M  END
> <minimizedAffinity>
-5.17384

> <CNNscore>
0.6726750135

> <CNNaffinity>
4.1611437798

> <CNN_VS>
2.7990975380

> <CNNaffinity_variance>
0.5966741443

$$$$
[H]c1c([H])c([H])c(C([H])([H])C([H])([H])[H])c(-c2c3c([H])c(C#N)c([H])c([H])c3nn2[H])c1[H]


 20 22  0  0  0  0  0  0  0  0999 V2000
   35.2917  -16.1628   36.1452 C   0  0  0  0  0  0  0  0  0  0  0  0
   36.6489  -16.1003   36.1233 N   0  0  0  0  0  0  0  0  0  0  0  0
   36.9859  -14.8735   36.4030 N   0  0  0  0  0  0  0  0  0  0  0  0
   35.9021  -14.0813   36.6118 C   0  0  0  0  0  0  0  0  0  0  0  0
   35.7402  -12.7587   36.9144 C   0  0  0  0  0  0  0  0  0  0  0  0
   34.4719  -12.2507   37.0514 C   0  0  0  0  0  0  0  0  0  0  0  0
   33.3802  -13.0814   36.8809 C   0  0  0  0  0  0  0  0  0  0  0  0
   33.5304  -14.3975   36.5821 C   0  0  0  0  0  0  0  0  0  0  0  0
   34.8096  -14.9251   36.4438 C   0  0  0  0  0  0  0  0  0  0  0  0
   37.3472  -16.8827   35.9310 H   0  0  0  0  0  0  0  0  0  0  0  0
   34.7771  -18.5449   36.5071 C   0  0  0  0  0  0  0  0  0  0  0  0
   34.0095  -19.6505   36.0822 C   0  0  0  0  0  0  0  0  0  0  0  0
   33.1320  -19.5804   35.0242 C   0  0  0  0  0  0  0  0  0  0  0  0
   32.9627  -18.4099   34.3218 C   0  0  0  0  0  0  0  0  0  0  0  0
   33.6969  -17.3333   34.7187 C   0  0  0  0  0  0  0  0  0  0  0  0
   34.6017  -17.3849   35.8045 C   0  0  0  0  0  0  0  0  0  0  0  0
   36.8865  -19.5837   37.4627 C   0  0  0  0  0  0  0  0  0  0  0  0
   35.6432  -18.8011   37.6516 C   0  0  0  0  0  0  0  0  0  0  0  0
   32.0739  -12.5275   37.0261 C   0  0  0  0  0  0  0  0  0  0  0  0
   30.9949  -12.0793   37.1219 N   0  0  0  0  0  0  0  0  0  0  0  0
 17 18  1  0  0  0
 18 11  1  0  0  0
 11 12  2  0  0  0
 12 13  1  0  0  0
 13 14  2  0  0  0
 14 15  1  0  0  0
 15 16  2  0  0  0
 16  1  1  0  0  0
  1  2  1  0  0  0
  2  3  1  0  0  0
  3  4  2  0  0  0
  4  5  1  0  0  0
  5  6  2  0  0  0
  6  7  1  0  0  0
  7  8  2  0  0  0
  8  9  1  0  0  0
  7 19  1  0  0  0
 19 20  3  0  0  0
 16 11  1  0  0  0
  9  1  2  0  0  0
  9  4  1  0  0  0
  2 10  1  0  0  0
M  END
> <minimizedAffinity>
-7.02459

> <CNNscore>
0.6666421890

> <CNNaffinity>
4.8909816742

> <CNN_VS>
3.2605347633

> <CNNaffinity_variance>
0.3345491290

$$$$
[H]c1c([H])c([H])c(C([H])([H])C([H])([H])[H])c(-c2c3c([H])c(C#N)c([H])c([H])c3nn2[H])c1[H]


 20 22  0  0  0  0  0  0  0  0999 V2000
   34.2063  -16.9894   35.6037 C   0  0  0  0  0  0  0  0  0  0  0  0
   33.4923  -16.6324   34.5043 N   0  0  0  0  0  0  0  0  0  0  0  0
   32.8778  -17.6985   34.0770 N   0  0  0  0  0  0  0  0  0  0  0  0
   33.1497  -18.7864   34.8439 C   0  0  0  0  0  0  0  0  0  0  0  0
   32.7656  -20.0970   34.7983 C   0  0  0  0  0  0  0  0  0  0  0  0
   33.2424  -20.9706   35.7443 C   0  0  0  0  0  0  0  0  0  0  0  0
   34.1021  -20.5138   36.7257 C   0  0  0  0  0  0  0  0  0  0  0  0
   34.4882  -19.2131   36.7809 C   0  0  0  0  0  0  0  0  0  0  0  0
   34.0100  -18.3174   35.8306 C   0  0  0  0  0  0  0  0  0  0  0  0
   33.4100  -15.6721   34.0482 H   0  0  0  0  0  0  0  0  0  0  0  0
   34.6543  -14.7583   36.5479 C   0  0  0  0  0  0  0  0  0  0  0  0
   35.5800  -13.9488   37.2407 C   0  0  0  0  0  0  0  0  0  0  0  0
   36.8206  -14.4045   37.6248 C   0  0  0  0  0  0  0  0  0  0  0  0
   37.2199  -15.6905   37.3444 C   0  0  0  0  0  0  0  0  0  0  0  0
   36.3382  -16.4849   36.6754 C   0  0  0  0  0  0  0  0  0  0  0  0
   35.0585  -16.0357   36.2745 C   0  0  0  0  0  0  0  0  0  0  0  0
   32.9280  -12.9690   37.0577 C   0  0  0  0  0  0  0  0  0  0  0  0
   33.3860  -14.1113   36.2337 C   0  0  0  0  0  0  0  0  0  0  0  0
   34.5847  -21.4427   37.6944 C   0  0  0  0  0  0  0  0  0  0  0  0
   34.9977  -22.2150   38.4737 N   0  0  0  0  0  0  0  0  0  0  0  0
 17 18  1  0  0  0
 18 11  1  0  0  0
 11 12  2  0  0  0
 12 13  1  0  0  0
 13 14  2  0  0  0
 14 15  1  0  0  0
 15 16  2  0  0  0
 16  1  1  0  0  0
  1  2  1  0  0  0
  2  3  1  0  0  0
  3  4  2  0  0  0
  4  5  1  0  0  0
  5  6  2  0  0  0
  6  7  1  0  0  0
  7  8  2  0  0  0
  8  9  1  0  0  0
  7 19  1  0  0  0
 19 20  3  0  0  0
 16 11  1  0  0  0
  9  1  2  0  0  0
  9  4  1  0  0  0
  2 10  1  0  0  0
M  END
> <minimizedAffinity>
-6.01140

> <CNNscore>
0.6575196385

> <CNNaffinity>
4.4581708908

> <CNN_VS>
2.9313349724

> <CNNaffinity_variance>
0.4549690187

$$$$
[H]c1c([H])c([H])c(C([H])([H])C([H])([H])[H])c(-c2c3c([H])c(C#N)c([H])c([H])c3nn2[H])c1[H]


 20 22  0  0  0  0  0  0  0  0999 V2000
   34.6898  -16.5767   36.1583 C   0  0  0  0  0  0  0  0  0  0  0  0
   33.6761  -16.5428   35.2542 N   0  0  0  0  0  0  0  0  0  0  0  0
   33.2927  -17.7715   35.0542 N   0  0  0  0  0  0  0  0  0  0  0  0
   34.0151  -18.6576   35.7881 C   0  0  0  0  0  0  0  0  0  0  0  0
   33.9998  -20.0183   35.9130 C   0  0  0  0  0  0  0  0  0  0  0  0
   34.8965  -20.6260   36.7568 C   0  0  0  0  0  0  0  0  0  0  0  0
   35.7997  -19.8555   37.4651 C   0  0  0  0  0  0  0  0  0  0  0  0
   35.8217  -18.5027   37.3495 C   0  0  0  0  0  0  0  0  0  0  0  0
   34.9167  -17.8747   36.5006 C   0  0  0  0  0  0  0  0  0  0  0  0
   33.2361  -15.6949   34.7805 H   0  0  0  0  0  0  0  0  0  0  0  0
   34.7544  -14.1538   36.6008 C   0  0  0  0  0  0  0  0  0  0  0  0
   35.5471  -13.0658   37.0249 C   0  0  0  0  0  0  0  0  0  0  0  0
   36.8747  -13.2031   37.3612 C   0  0  0  0  0  0  0  0  0  0  0  0
   37.4979  -14.4276   37.2963 C   0  0  0  0  0  0  0  0  0  0  0  0
   36.7468  -15.4882   36.8879 C   0  0  0  0  0  0  0  0  0  0  0  0
   35.3811  -15.3677   36.5405 C   0  0  0  0  0  0  0  0  0  0  0  0
   32.6765  -12.7830   37.0958 C   0  0  0  0  0  0  0  0  0  0  0  0
   33.3670  -13.8228   36.2984 C   0  0  0  0  0  0  0  0  0  0  0  0
   36.7219  -20.5123   38.3325 C   0  0  0  0  0  0  0  0  0  0  0  0
   37.4966  -21.0339   39.0412 N   0  0  0  0  0  0  0  0  0  0  0  0
 17 18  1  0  0  0
 18 11  1  0  0  0
 11 12  2  0  0  0
 12 13  1  0  0  0
 13 14  2  0  0  0
 14 15  1  0  0  0
 15 16  2  0  0  0
 16  1  1  0  0  0
  1  2  1  0  0  0
  2  3  1  0  0  0
  3  4  2  0  0  0
  4  5  1  0  0  0
  5  6  2  0  0  0
  6  7  1  0  0  0
  7  8  2  0  0  0
  8  9  1  0  0  0
  7 19  1  0  0  0
 19 20  3  0  0  0
 16 11  1  0  0  0
  9  1  2  0  0  0
  9  4  1  0  0  0
  2 10  1  0  0  0
M  END
> <minimizedAffinity>
-6.48017

> <CNNscore>
0.6263848543

> <CNNaffinity>
4.4991054535

> <CNN_VS>
2.8181715012

> <CNNaffinity_variance>
0.3675285280

$$$$
[H]c1c([H])c([H])c(C([H])([H])C([H])([H])[H])c(-c2c3c([H])c(C#N)c([H])c([H])c3nn2[H])c1[H]


 20 22  0  0  0  0  0  0  0  0999 V2000
   34.0560  -16.3634   35.8759 C   0  0  0  0  0  0  0  0  0  0  0  0
   32.8325  -16.9411   36.0014 N   0  0  0  0  0  0  0  0  0  0  0  0
   32.9090  -18.1310   35.4769 N   0  0  0  0  0  0  0  0  0  0  0  0
   34.1480  -18.3934   34.9851 C   0  0  0  0  0  0  0  0  0  0  0  0
   34.7069  -19.4665   34.3500 C   0  0  0  0  0  0  0  0  0  0  0  0
   36.0220  -19.4068   33.9600 C   0  0  0  0  0  0  0  0  0  0  0  0
   36.7596  -18.2655   34.2138 C   0  0  0  0  0  0  0  0  0  0  0  0
   36.2142  -17.1947   34.8460 C   0  0  0  0  0  0  0  0  0  0  0  0
   34.8841  -17.2436   35.2489 C   0  0  0  0  0  0  0  0  0  0  0  0
   31.9511  -16.5404   36.4478 H   0  0  0  0  0  0  0  0  0  0  0  0
   35.4126  -14.6194   36.9659 C   0  0  0  0  0  0  0  0  0  0  0  0
   35.5096  -13.2491   37.2903 C   0  0  0  0  0  0  0  0  0  0  0  0
   34.5287  -12.3398   36.9658 C   0  0  0  0  0  0  0  0  0  0  0  0
   33.3908  -12.7336   36.3009 C   0  0  0  0  0  0  0  0  0  0  0  0
   33.2812  -14.0533   35.9812 C   0  0  0  0  0  0  0  0  0  0  0  0
   34.2790  -15.0022   36.3038 C   0  0  0  0  0  0  0  0  0  0  0  0
   37.7946  -14.7642   37.8301 C   0  0  0  0  0  0  0  0  0  0  0  0
   36.5518  -15.4309   37.3773 C   0  0  0  0  0  0  0  0  0  0  0  0
   38.1228  -18.2288   33.7957 C   0  0  0  0  0  0  0  0  0  0  0  0
   39.2497  -18.1903   33.4748 N   0  0  0  0  0  0  0  0  0  0  0  0
 17 18  1  0  0  0
 18 11  1  0  0  0
 11 12  2  0  0  0
 12 13  1  0  0  0
 13 14  2  0  0  0
 14 15  1  0  0  0
 15 16  2  0  0  0
 16  1  1  0  0  0
  1  2  1  0  0  0
  2  3  1  0  0  0
  3  4  2  0  0  0
  4  5  1  0  0  0
  5  6  2  0  0  0
  6  7  1  0  0  0
  7  8  2  0  0  0
  8  9  1  0  0  0
  7 19  1  0  0  0
 19 20  3  0  0  0
 16 11  1  0  0  0
  9  1  2  0  0  0
  9  4  1  0  0  0
  2 10  1  0  0  0
M  END
> <minimizedAffinity>
-5.86720

> <CNNscore>
0.6124017835

> <CNNaffinity>
4.7905874252

> <CNN_VS>
2.9337642193

> <CNNaffinity_variance>
0.2184387743

$$$$
[H]c1c([H])c([H])c(C([H])([H])C([H])([H])[H])c(-c2c3c([H])c(C#N)c([H])c([H])c3nn2[H])c1[H]


 20 22  0  0  0  0  0  0  0  0999 V2000
   35.8890  -16.9474   35.3137 C   0  0  0  0  0  0  0  0  0  0  0  0
   36.9919  -17.3931   34.6571 N   0  0  0  0  0  0  0  0  0  0  0  0
   36.6389  -18.4446   33.9740 N   0  0  0  0  0  0  0  0  0  0  0  0
   35.3248  -18.7455   34.1426 C   0  0  0  0  0  0  0  0  0  0  0  0
   34.5096  -19.7307   33.6608 C   0  0  0  0  0  0  0  0  0  0  0  0
   33.1919  -19.7609   34.0455 C   0  0  0  0  0  0  0  0  0  0  0  0
   32.7101  -18.7979   34.9124 C   0  0  0  0  0  0  0  0  0  0  0  0
   33.5115  -17.8136   35.3952 C   0  0  0  0  0  0  0  0  0  0  0  0
   34.8473  -17.7700   35.0109 C   0  0  0  0  0  0  0  0  0  0  0  0
   37.9771  -16.9855   34.6599 H   0  0  0  0  0  0  0  0  0  0  0  0
   34.9793  -14.8871   36.3125 C   0  0  0  0  0  0  0  0  0  0  0  0
   35.1788  -13.8660   37.2664 C   0  0  0  0  0  0  0  0  0  0  0  0
   36.2997  -13.8048   38.0627 C   0  0  0  0  0  0  0  0  0  0  0  0
   37.2922  -14.7517   37.9611 C   0  0  0  0  0  0  0  0  0  0  0  0
   37.1155  -15.7438   37.0444 C   0  0  0  0  0  0  0  0  0  0  0  0
   35.9699  -15.8251   36.2190 C   0  0  0  0  0  0  0  0  0  0  0  0
   32.8716  -13.6002   35.7268 C   0  0  0  0  0  0  0  0  0  0  0  0
   33.7285  -14.7979   35.5687 C   0  0  0  0  0  0  0  0  0  0  0  0
   31.3381  -18.8540   35.2981 C   0  0  0  0  0  0  0  0  0  0  0  0
   30.2163  -18.9171   35.6326 N   0  0  0  0  0  0  0  0  0  0  0  0
 17 18  1  0  0  0
 18 11  1  0  0  0
 11 12  2  0  0  0
 12 13  1  0  0  0
 13 14  2  0  0  0
 14 15  1  0  0  0
 15 16  2  0  0  0
 16  1  1  0  0  0
  1  2  1  0  0  0
  2  3  1  0  0  0
  3  4  2  0  0  0
  4  5  1  0  0  0
  5  6  2  0  0  0
  6  7  1  0  0  0
  7  8  2  0  0  0
  8  9  1  0  0  0
  7 19  1  0  0  0
 19 20  3  0  0  0
 16 11  1  0  0  0
  9  1  2  0  0  0
  9  4  1  0  0  0
  2 10  1  0  0  0
M  END
> <minimizedAffinity>
-6.28727

> <CNNscore>
0.5701601505

> <CNNaffinity>
4.6889839172

> <CNN_VS>
2.6734716892

> <CNNaffinity_variance>
0.1354596615

$$$$
[H]c1nc(N([H])c2c([H])c([H])c3c(c2[H])c(C2=NC([H])([H])C([H])([H])N2[H])c([H])n3C([H])(C([H])([H])[H])C([H])([H])[H])oc1[H]


 25 28  0  0  0  0  0  0  0  0999 V2000
   36.4844  -17.9664   35.2458 N   0  0  0  0  0  0  0  0  0  0  0  0
   36.4329  -16.7334   35.7805 C   0  0  0  0  0  0  0  0  0  0  0  0
   35.0927  -16.3242   35.8980 C   0  0  0  0  0  0  0  0  0  0  0  0
   34.3682  -17.4042   35.3955 C   0  0  0  0  0  0  0  0  0  0  0  0
   33.0258  -17.6148   35.2500 C   0  0  0  0  0  0  0  0  0  0  0  0
   32.5338  -18.8200   34.7080 C   0  0  0  0  0  0  0  0  0  0  0  0
   33.4076  -19.8023   34.3177 C   0  0  0  0  0  0  0  0  0  0  0  0
   34.7830  -19.5822   34.4697 C   0  0  0  0  0  0  0  0  0  0  0  0
   35.2370  -18.4033   34.9993 C   0  0  0  0  0  0  0  0  0  0  0  0
   34.6224  -15.0631   36.4388 C   0  0  0  0  0  0  0  0  0  0  0  0
   35.4622  -14.2307   36.9995 N   0  0  0  0  0  0  0  0  0  0  0  0
   34.7449  -13.0605   37.4522 C   0  0  0  0  0  0  0  0  0  0  0  0
   33.4124  -13.1372   36.7528 C   0  0  0  0  0  0  0  0  0  0  0  0
   33.3125  -14.5520   36.4273 N   0  0  0  0  0  0  0  0  0  0  0  0
   32.4141  -15.0541   36.2233 H   0  0  0  0  0  0  0  0  0  0  0  0
   38.3000  -18.3020   33.6500 C   0  0  0  0  0  0  0  0  0  0  0  0
   37.6698  -18.7676   34.9502 C   0  0  0  0  0  0  0  0  0  0  0  0
   38.6465  -18.7617   36.0947 C   0  0  0  0  0  0  0  0  0  0  0  0
   31.1375  -18.9450   34.5775 N   0  0  0  0  0  0  0  0  0  0  0  0
   30.6464  -18.2256   33.9727 H   0  0  0  0  0  0  0  0  0  0  0  0
   30.3622  -19.9320   35.1716 C   0  0  0  0  0  0  0  0  0  0  0  0
   29.2902  -19.6526   35.9811 N   0  0  0  0  0  0  0  0  0  0  0  0
   28.7754  -20.8225   36.3816 C   0  0  0  0  0  0  0  0  0  0  0  0
   29.5495  -21.7945   35.8039 C   0  0  0  0  0  0  0  0  0  0  0  0
   30.4759  -21.2172   35.0970 O   0  0  0  0  0  0  0  0  0  0  0  0
 16 17  1  0  0  0
 17 18  1  0  0  0
 17  1  1  0  0  0
  1  2  1  0  0  0
  2  3  2  0  0  0
  3 10  1  0  0  0
 10 11  2  0  0  0
 11 12  1  0  0  0
 12 13  1  0  0  0
 13 14  1  0  0  0
  3  4  1  0  0  0
  4  5  2  0  0  0
  5  6  1  0  0  0
  6 19  1  0  0  0
 19 21  1  0  0  0
 21 22  2  0  0  0
 22 23  1  0  0  0
 23 24  2  0  0  0
 24 25  1  0  0  0
  6  7  2  0  0  0
  7  8  1  0  0  0
  8  9  2  0  0  0
  9  1  1  0  0  0
 14 10  1  0  0  0
  9  4  1  0  0  0
 25 21  1  0  0  0
 14 15  1  0  0  0
 19 20  1  0  0  0
M  END
> <minimizedAffinity>
-6.84878

> <CNNscore>
0.7597593069

> <CNNaffinity>
5.5882139206

> <CNN_VS>
4.2456974983

> <CNNaffinity_variance>
0.4505175948

$$$$
[H]c1nc(N([H])c2c([H])c([H])c3c(c2[H])c(C2=NC([H])([H])C([H])([H])N2[H])c([H])n3C([H])(C([H])([H])[H])C([H])([H])[H])oc1[H]


 25 28  0  0  0  0  0  0  0  0999 V2000
   36.5380  -18.2546   36.2710 N   0  0  0  0  0  0  0  0  0  0  0  0
   35.5137  -18.9950   35.8112 C   0  0  0  0  0  0  0  0  0  0  0  0
   34.3985  -18.1697   35.5821 C   0  0  0  0  0  0  0  0  0  0  0  0
   34.8447  -16.8981   35.9396 C   0  0  0  0  0  0  0  0  0  0  0  0
   34.2281  -15.6786   35.9330 C   0  0  0  0  0  0  0  0  0  0  0  0
   34.9116  -14.5164   36.3459 C   0  0  0  0  0  0  0  0  0  0  0  0
   36.2155  -14.6004   36.7624 C   0  0  0  0  0  0  0  0  0  0  0  0
   36.8440  -15.8528   36.7665 C   0  0  0  0  0  0  0  0  0  0  0  0
   36.1594  -16.9676   36.3604 C   0  0  0  0  0  0  0  0  0  0  0  0
   33.1063  -18.5904   35.0750 C   0  0  0  0  0  0  0  0  0  0  0  0
   33.0308  -19.4548   34.0955 N   0  0  0  0  0  0  0  0  0  0  0  0
   31.6418  -19.7017   33.7817 C   0  0  0  0  0  0  0  0  0  0  0  0
   30.8819  -19.1473   34.9589 C   0  0  0  0  0  0  0  0  0  0  0  0
   31.8322  -18.2025   35.5261 N   0  0  0  0  0  0  0  0  0  0  0  0
   31.5738  -17.4020   36.1531 H   0  0  0  0  0  0  0  0  0  0  0  0
   37.7886  -19.9358   37.5222 C   0  0  0  0  0  0  0  0  0  0  0  0
   37.8785  -18.7060   36.6367 C   0  0  0  0  0  0  0  0  0  0  0  0
   38.7400  -18.9346   35.4245 C   0  0  0  0  0  0  0  0  0  0  0  0
   34.1942  -13.3052   36.3241 N   0  0  0  0  0  0  0  0  0  0  0  0
   34.4799  -12.5920   35.5931 H   0  0  0  0  0  0  0  0  0  0  0  0
   33.1478  -12.9781   37.1763 C   0  0  0  0  0  0  0  0  0  0  0  0
   33.2120  -13.1480   38.5363 N   0  0  0  0  0  0  0  0  0  0  0  0
   32.0435  -12.7378   39.0466 C   0  0  0  0  0  0  0  0  0  0  0  0
   31.2887  -12.3246   37.9801 C   0  0  0  0  0  0  0  0  0  0  0  0
   31.9862  -12.4865   36.8945 O   0  0  0  0  0  0  0  0  0  0  0  0
 16 17  1  0  0  0
 17 18  1  0  0  0
 17  1  1  0  0  0
  1  2  1  0  0  0
  2  3  2  0  0  0
  3 10  1  0  0  0
 10 11  2  0  0  0
 11 12  1  0  0  0
 12 13  1  0  0  0
 13 14  1  0  0  0
  3  4  1  0  0  0
  4  5  2  0  0  0
  5  6  1  0  0  0
  6 19  1  0  0  0
 19 21  1  0  0  0
 21 22  2  0  0  0
 22 23  1  0  0  0
 23 24  2  0  0  0
 24 25  1  0  0  0
  6  7  2  0  0  0
  7  8  1  0  0  0
  8  9  2  0  0  0
  9  1  1  0  0  0
 14 10  1  0  0  0
  9  4  1  0  0  0
 25 21  1  0  0  0
 14 15  1  0  0  0
 19 20  1  0  0  0
M  END
> <minimizedAffinity>
-7.44408

> <CNNscore>
0.6753973365

> <CNNaffinity>
5.6897492409

> <CNN_VS>
3.8428413868

> <CNNaffinity_variance>
0.1841726005

$$$$
[H]c1nc(N([H])c2c([H])c([H])c3c(c2[H])c(C2=NC([H])([H])C([H])([H])N2[H])c([H])n3C([H])(C([H])([H])[H])C([H])([H])[H])oc1[H]


 25 28  0  0  0  0  0  0  0  0999 V2000
   35.8532  -16.5377   35.9566 N   0  0  0  0  0  0  0  0  0  0  0  0
   37.0406  -17.0690   35.6152 C   0  0  0  0  0  0  0  0  0  0  0  0
   36.8367  -18.2358   34.8573 C   0  0  0  0  0  0  0  0  0  0  0  0
   35.4490  -18.3461   34.7805 C   0  0  0  0  0  0  0  0  0  0  0  0
   34.6381  -19.2641   34.1745 C   0  0  0  0  0  0  0  0  0  0  0  0
   33.2342  -19.1487   34.2393 C   0  0  0  0  0  0  0  0  0  0  0  0
   32.6638  -18.1028   34.9188 C   0  0  0  0  0  0  0  0  0  0  0  0
   33.4993  -17.1636   35.5378 C   0  0  0  0  0  0  0  0  0  0  0  0
   34.8605  -17.2966   35.4604 C   0  0  0  0  0  0  0  0  0  0  0  0
   37.8672  -19.0869   34.2939 C   0  0  0  0  0  0  0  0  0  0  0  0
   38.8254  -18.5712   33.5670 N   0  0  0  0  0  0  0  0  0  0  0  0
   39.7138  -19.6242   33.1303 C   0  0  0  0  0  0  0  0  0  0  0  0
   39.3672  -20.8011   34.0051 C   0  0  0  0  0  0  0  0  0  0  0  0
   38.0179  -20.4770   34.4431 N   0  0  0  0  0  0  0  0  0  0  0  0
   37.3237  -21.1775   34.8011 H   0  0  0  0  0  0  0  0  0  0  0  0
   36.6049  -15.2303   37.8753 C   0  0  0  0  0  0  0  0  0  0  0  0
   35.6021  -15.3303   36.7399 C   0  0  0  0  0  0  0  0  0  0  0  0
   35.5894  -14.0980   35.8766 C   0  0  0  0  0  0  0  0  0  0  0  0
   32.4755  -20.1487   33.6018 N   0  0  0  0  0  0  0  0  0  0  0  0
   32.3500  -20.0593   32.5526 H   0  0  0  0  0  0  0  0  0  0  0  0
   31.8880  -21.2355   34.2358 C   0  0  0  0  0  0  0  0  0  0  0  0
   30.9231  -21.1036   35.2022 N   0  0  0  0  0  0  0  0  0  0  0  0
   30.5810  -22.3369   35.5973 C   0  0  0  0  0  0  0  0  0  0  0  0
   31.3496  -23.1980   34.8586 C   0  0  0  0  0  0  0  0  0  0  0  0
   32.1072  -22.4979   34.0668 O   0  0  0  0  0  0  0  0  0  0  0  0
 16 17  1  0  0  0
 17 18  1  0  0  0
 17  1  1  0  0  0
  1  2  1  0  0  0
  2  3  2  0  0  0
  3 10  1  0  0  0
 10 11  2  0  0  0
 11 12  1  0  0  0
 12 13  1  0  0  0
 13 14  1  0  0  0
  3  4  1  0  0  0
  4  5  2  0  0  0
  5  6  1  0  0  0
  6 19  1  0  0  0
 19 21  1  0  0  0
 21 22  2  0  0  0
 22 23  1  0  0  0
 23 24  2  0  0  0
 24 25  1  0  0  0
  6  7  2  0  0  0
  7  8  1  0  0  0
  8  9  2  0  0  0
  9  1  1  0  0  0
 14 10  1  0  0  0
  9  4  1  0  0  0
 25 21  1  0  0  0
 14 15  1  0  0  0
 19 20  1  0  0  0
M  END
> <minimizedAffinity>
-6.65900

> <CNNscore>
0.5942403078

> <CNNaffinity>
5.2083420753

> <CNN_VS>
3.0950067043

> <CNNaffinity_variance>
0.3721443713

$$$$
[H]c1nc(N([H])c2c([H])c([H])c3c(c2[H])c(C2=NC([H])([H])C([H])([H])N2[H])c([H])n3C([H])(C([H])([H])[H])C([H])([H])[H])oc1[H]


 25 28  0  0  0  0  0  0  0  0999 V2000
   33.4233  -18.1994   35.2302 N   0  0  0  0  0  0  0  0  0  0  0  0
   33.7870  -16.9072   35.3110 C   0  0  0  0  0  0  0  0  0  0  0  0
   34.9046  -16.7819   36.1550 C   0  0  0  0  0  0  0  0  0  0  0  0
   35.1666  -18.0903   36.5591 C   0  0  0  0  0  0  0  0  0  0  0  0
   36.1271  -18.6192   37.3747 C   0  0  0  0  0  0  0  0  0  0  0  0
   36.1836  -20.0054   37.6269 C   0  0  0  0  0  0  0  0  0  0  0  0
   35.2651  -20.8444   37.0498 C   0  0  0  0  0  0  0  0  0  0  0  0
   34.2827  -20.2977   36.2134 C   0  0  0  0  0  0  0  0  0  0  0  0
   34.2485  -18.9478   35.9831 C   0  0  0  0  0  0  0  0  0  0  0  0
   35.5992  -15.5524   36.4862 C   0  0  0  0  0  0  0  0  0  0  0  0
   34.9268  -14.4948   36.8629 N   0  0  0  0  0  0  0  0  0  0  0  0
   35.8475  -13.4135   37.1312 C   0  0  0  0  0  0  0  0  0  0  0  0
   37.1971  -14.0772   37.2229 C   0  0  0  0  0  0  0  0  0  0  0  0
   36.9854  -15.3161   36.4894 N   0  0  0  0  0  0  0  0  0  0  0  0
   37.7506  -15.8952   36.0653 H   0  0  0  0  0  0  0  0  0  0  0  0
   32.7917  -20.0086   33.7190 C   0  0  0  0  0  0  0  0  0  0  0  0
   32.3187  -18.7749   34.4665 C   0  0  0  0  0  0  0  0  0  0  0  0
   31.1248  -19.0557   35.3381 C   0  0  0  0  0  0  0  0  0  0  0  0
   37.1949  -20.4617   38.4937 N   0  0  0  0  0  0  0  0  0  0  0  0
   37.0147  -20.3635   39.5341 H   0  0  0  0  0  0  0  0  0  0  0  0
   38.3975  -21.0292   38.0936 C   0  0  0  0  0  0  0  0  0  0  0  0
   39.5119  -20.2853   37.7982 N   0  0  0  0  0  0  0  0  0  0  0  0
   40.4828  -21.1399   37.4499 C   0  0  0  0  0  0  0  0  0  0  0  0
   39.9353  -22.3927   37.5413 C   0  0  0  0  0  0  0  0  0  0  0  0
   38.6988  -22.2748   37.9262 O   0  0  0  0  0  0  0  0  0  0  0  0
 16 17  1  0  0  0
 17 18  1  0  0  0
 17  1  1  0  0  0
  1  2  1  0  0  0
  2  3  2  0  0  0
  3 10  1  0  0  0
 10 11  2  0  0  0
 11 12  1  0  0  0
 12 13  1  0  0  0
 13 14  1  0  0  0
  3  4  1  0  0  0
  4  5  2  0  0  0
  5  6  1  0  0  0
  6 19  1  0  0  0
 19 21  1  0  0  0
 21 22  2  0  0  0
 22 23  1  0  0  0
 23 24  2  0  0  0
 24 25  1  0  0  0
  6  7  2  0  0  0
  7  8  1  0  0  0
  8  9  2  0  0  0
  9  1  1  0  0  0
 14 10  1  0  0  0
  9  4  1  0  0  0
 25 21  1  0  0  0
 14 15  1  0  0  0
 19 20  1  0  0  0
M  END
> <minimizedAffinity>
-5.49752

> <CNNscore>
0.5419510603

> <CNNaffinity>
5.1175608635

> <CNN_VS>
2.7734675407

> <CNNaffinity_variance>
0.4092473090

$$$$
[H]c1nc(N([H])c2c([H])c([H])c3c(c2[H])c(C2=NC([H])([H])C([H])([H])N2[H])c([H])n3C([H])(C([H])([H])[H])C([H])([H])[H])oc1[H]


 25 28  0  0  0  0  0  0  0  0999 V2000
   34.1241  -10.0384   36.8976 N   0  0  0  0  0  0  0  0  0  0  0  0
   35.0533  -10.9862   36.6803 C   0  0  0  0  0  0  0  0  0  0  0  0
   34.5430  -12.2430   37.0510 C   0  0  0  0  0  0  0  0  0  0  0  0
   33.2530  -11.9612   37.4983 C   0  0  0  0  0  0  0  0  0  0  0  0
   32.2581  -12.7641   37.9812 C   0  0  0  0  0  0  0  0  0  0  0  0
   31.0142  -12.2259   38.3703 C   0  0  0  0  0  0  0  0  0  0  0  0
   30.7893  -10.8770   38.2667 C   0  0  0  0  0  0  0  0  0  0  0  0
   31.8119  -10.0578   37.7701 C   0  0  0  0  0  0  0  0  0  0  0  0
   33.0118  -10.6041   37.3980 C   0  0  0  0  0  0  0  0  0  0  0  0
   35.2348  -13.5143   36.9566 C   0  0  0  0  0  0  0  0  0  0  0  0
   36.3552  -13.7064   37.6049 N   0  0  0  0  0  0  0  0  0  0  0  0
   36.8356  -15.0442   37.3433 C   0  0  0  0  0  0  0  0  0  0  0  0
   35.6544  -15.7616   36.7428 C   0  0  0  0  0  0  0  0  0  0  0  0
   34.8423  -14.6616   36.2446 N   0  0  0  0  0  0  0  0  0  0  0  0
   34.1096  -14.7525   35.4991 H   0  0  0  0  0  0  0  0  0  0  0  0
   35.2626   -8.3362   35.5701 C   0  0  0  0  0  0  0  0  0  0  0  0
   34.2331   -8.6021   36.6536 C   0  0  0  0  0  0  0  0  0  0  0  0
   32.8967   -7.9872   36.3375 C   0  0  0  0  0  0  0  0  0  0  0  0
   30.0530  -13.1232   38.8733 N   0  0  0  0  0  0  0  0  0  0  0  0
   30.2744  -14.1572   38.7930 H   0  0  0  0  0  0  0  0  0  0  0  0
   28.8503  -12.7607   39.4650 C   0  0  0  0  0  0  0  0  0  0  0  0
   28.3590  -13.3708   40.5915 N   0  0  0  0  0  0  0  0  0  0  0  0
   27.1921  -12.7839   40.8880 C   0  0  0  0  0  0  0  0  0  0  0  0
   26.9970  -11.8236   39.9301 C   0  0  0  0  0  0  0  0  0  0  0  0
   28.0060  -11.8487   39.1102 O   0  0  0  0  0  0  0  0  0  0  0  0
 16 17  1  0  0  0
 17 18  1  0  0  0
 17  1  1  0  0  0
  1  2  1  0  0  0
  2  3  2  0  0  0
  3 10  1  0  0  0
 10 11  2  0  0  0
 11 12  1  0  0  0
 12 13  1  0  0  0
 13 14  1  0  0  0
  3  4  1  0  0  0
  4  5  2  0  0  0
  5  6  1  0  0  0
  6 19  1  0  0  0
 19 21  1  0  0  0
 21 22  2  0  0  0
 22 23  1  0  0  0
 23 24  2  0  0  0
 24 25  1  0  0  0
  6  7  2  0  0  0
  7  8  1  0  0  0
  8  9  2  0  0  0
  9  1  1  0  0  0
 14 10  1  0  0  0
  9  4  1  0  0  0
 25 21  1  0  0  0
 14 15  1  0  0  0
 19 20  1  0  0  0
M  END
> <minimizedAffinity>
-6.54230

> <CNNscore>
0.4813436866

> <CNNaffinity>
6.3576626778

> <CNN_VS>
3.0602207184

> <CNNaffinity_variance>
0.1956650913

$$$$
[H]c1nc(N([H])c2c([H])c([H])c3c(c2[H])c(C2=NC([H])([H])C([H])([H])N2[H])c([H])n3C([H])(C([H])([H])[H])C([H])([H])[H])oc1[H]


 25 28  0  0  0  0  0  0  0  0999 V2000
   33.8156  -10.2562   37.1476 N   0  0  0  0  0  0  0  0  0  0  0  0
   32.6071  -10.3526   37.7299 C   0  0  0  0  0  0  0  0  0  0  0  0
   32.3130  -11.7030   37.9892 C   0  0  0  0  0  0  0  0  0  0  0  0
   33.4339  -12.3855   37.5185 C   0  0  0  0  0  0  0  0  0  0  0  0
   33.7499  -13.7148   37.4935 C   0  0  0  0  0  0  0  0  0  0  0  0
   34.9753  -14.1606   36.9568 C   0  0  0  0  0  0  0  0  0  0  0  0
   35.8706  -13.2542   36.4492 C   0  0  0  0  0  0  0  0  0  0  0  0
   35.5427  -11.8922   36.4778 C   0  0  0  0  0  0  0  0  0  0  0  0
   34.3463  -11.4833   37.0049 C   0  0  0  0  0  0  0  0  0  0  0  0
   31.1112  -12.2164   38.6183 C   0  0  0  0  0  0  0  0  0  0  0  0
   29.9607  -12.1486   37.9984 N   0  0  0  0  0  0  0  0  0  0  0  0
   28.9322  -12.7239   38.8352 C   0  0  0  0  0  0  0  0  0  0  0  0
   29.6859  -13.4869   39.8935 C   0  0  0  0  0  0  0  0  0  0  0  0
   30.9912  -12.8441   39.8708 N   0  0  0  0  0  0  0  0  0  0  0  0
   31.6833  -12.8737   40.6588 H   0  0  0  0  0  0  0  0  0  0  0  0
   35.4179   -9.3624   35.5384 C   0  0  0  0  0  0  0  0  0  0  0  0
   34.5077   -9.0458   36.7114 C   0  0  0  0  0  0  0  0  0  0  0  0
   33.5436   -7.9322   36.4043 C   0  0  0  0  0  0  0  0  0  0  0  0
   35.2108  -15.5486   36.9551 N   0  0  0  0  0  0  0  0  0  0  0  0
   35.7758  -15.9398   37.7627 H   0  0  0  0  0  0  0  0  0  0  0  0
   34.7601  -16.4369   35.9875 C   0  0  0  0  0  0  0  0  0  0  0  0
   35.5981  -17.2729   35.2937 N   0  0  0  0  0  0  0  0  0  0  0  0
   34.8425  -17.9851   34.4476 C   0  0  0  0  0  0  0  0  0  0  0  0
   33.5533  -17.5648   34.6457 C   0  0  0  0  0  0  0  0  0  0  0  0
   33.5562  -16.6474   35.5673 O   0  0  0  0  0  0  0  0  0  0  0  0
 16 17  1  0  0  0
 17 18  1  0  0  0
 17  1  1  0  0  0
  1  2  1  0  0  0
  2  3  2  0  0  0
  3 10  1  0  0  0
 10 11  2  0  0  0
 11 12  1  0  0  0
 12 13  1  0  0  0
 13 14  1  0  0  0
  3  4  1  0  0  0
  4  5  2  0  0  0
  5  6  1  0  0  0
  6 19  1  0  0  0
 19 21  1  0  0  0
 21 22  2  0  0  0
 22 23  1  0  0  0
 23 24  2  0  0  0
 24 25  1  0  0  0
  6  7  2  0  0  0
  7  8  1  0  0  0
  8  9  2  0  0  0
  9  1  1  0  0  0
 14 10  1  0  0  0
  9  4  1  0  0  0
 25 21  1  0  0  0
 14 15  1  0  0  0
 19 20  1  0  0  0
M  END
> <minimizedAffinity>
-7.26686

> <CNNscore>
0.4768162072

> <CNNaffinity>
6.2379508018

> <CNN_VS>
2.9743559361

> <CNNaffinity_variance>
0.1046680659

$$$$
[H]c1nc(N([H])c2c([H])c([H])c3c(c2[H])c(C2=NC([H])([H])C([H])([H])N2[H])c([H])n3C([H])(C([H])([H])[H])C([H])([H])[H])oc1[H]


 25 28  0  0  0  0  0  0  0  0999 V2000
   35.5798  -18.0755   34.7974 N   0  0  0  0  0  0  0  0  0  0  0  0
   36.6180  -18.0711   33.9424 C   0  0  0  0  0  0  0  0  0  0  0  0
   37.6956  -18.7796   34.5028 C   0  0  0  0  0  0  0  0  0  0  0  0
   37.2126  -19.1972   35.7422 C   0  0  0  0  0  0  0  0  0  0  0  0
   37.7837  -19.9284   36.7456 C   0  0  0  0  0  0  0  0  0  0  0  0
   37.0692  -20.2278   37.9239 C   0  0  0  0  0  0  0  0  0  0  0  0
   35.7808  -19.7828   38.0751 C   0  0  0  0  0  0  0  0  0  0  0  0
   35.1991  -19.0343   37.0432 C   0  0  0  0  0  0  0  0  0  0  0  0
   35.9132  -18.7567   35.9076 C   0  0  0  0  0  0  0  0  0  0  0  0
   38.9883  -19.0088   33.8862 C   0  0  0  0  0  0  0  0  0  0  0  0
   40.0893  -18.7753   34.5540 N   0  0  0  0  0  0  0  0  0  0  0  0
   41.2288  -19.0812   33.7193 C   0  0  0  0  0  0  0  0  0  0  0  0
   40.6600  -19.8873   32.5803 C   0  0  0  0  0  0  0  0  0  0  0  0
   39.2564  -19.5038   32.5977 N   0  0  0  0  0  0  0  0  0  0  0  0
   38.6024  -19.6011   31.7831 H   0  0  0  0  0  0  0  0  0  0  0  0
   33.1919  -18.5310   34.5829 C   0  0  0  0  0  0  0  0  0  0  0  0
   34.2671  -17.4599   34.6183 C   0  0  0  0  0  0  0  0  0  0  0  0
   33.9962  -16.4104   35.6620 C   0  0  0  0  0  0  0  0  0  0  0  0
   37.7408  -20.9709   38.9132 N   0  0  0  0  0  0  0  0  0  0  0  0
   38.7971  -20.8830   38.9442 H   0  0  0  0  0  0  0  0  0  0  0  0
   37.1305  -21.7994   39.8457 C   0  0  0  0  0  0  0  0  0  0  0  0
   37.1263  -23.1673   39.7389 N   0  0  0  0  0  0  0  0  0  0  0  0
   36.4567  -23.6492   40.7941 C   0  0  0  0  0  0  0  0  0  0  0  0
   36.0655  -22.5579   41.5248 C   0  0  0  0  0  0  0  0  0  0  0  0
   36.4883  -21.4858   40.9224 O   0  0  0  0  0  0  0  0  0  0  0  0
 16 17  1  0  0  0
 17 18  1  0  0  0
 17  1  1  0  0  0
  1  2  1  0  0  0
  2  3  2  0  0  0
  3 10  1  0  0  0
 10 11  2  0  0  0
 11 12  1  0  0  0
 12 13  1  0  0  0
 13 14  1  0  0  0
  3  4  1  0  0  0
  4  5  2  0  0  0
  5  6  1  0  0  0
  6 19  1  0  0  0
 19 21  1  0  0  0
 21 22  2  0  0  0
 22 23  1  0  0  0
 23 24  2  0  0  0
 24 25  1  0  0  0
  6  7  2  0  0  0
  7  8  1  0  0  0
  8  9  2  0  0  0
  9  1  1  0  0  0
 14 10  1  0  0  0
  9  4  1  0  0  0
 25 21  1  0  0  0
 14 15  1  0  0  0
 19 20  1  0  0  0
M  END
> <minimizedAffinity>
-5.00926

> <CNNscore>
0.4589132071

> <CNNaffinity>
4.6216459274

> <CNN_VS>
2.1209342480

> <CNNaffinity_variance>
0.4847130775

$$$$
[H]c1nc(N([H])c2c([H])c([H])c3c(c2[H])c(C2=NC([H])([H])C([H])([H])N2[H])c([H])n3C([H])(C([H])([H])[H])C([H])([H])[H])oc1[H]


 25 28  0  0  0  0  0  0  0  0999 V2000
   34.2004  -18.8536   35.8374 N   0  0  0  0  0  0  0  0  0  0  0  0
   34.7247  -19.5626   36.8529 C   0  0  0  0  0  0  0  0  0  0  0  0
   33.7825  -20.5003   37.3115 C   0  0  0  0  0  0  0  0  0  0  0  0
   32.6743  -20.2884   36.4925 C   0  0  0  0  0  0  0  0  0  0  0  0
   31.4485  -20.8902   36.4410 C   0  0  0  0  0  0  0  0  0  0  0  0
   30.4811  -20.4893   35.4966 C   0  0  0  0  0  0  0  0  0  0  0  0
   30.7649  -19.4807   34.6118 C   0  0  0  0  0  0  0  0  0  0  0  0
   32.0234  -18.8672   34.6677 C   0  0  0  0  0  0  0  0  0  0  0  0
   32.9470  -19.2745   35.5938 C   0  0  0  0  0  0  0  0  0  0  0  0
   33.9731  -21.4574   38.3845 C   0  0  0  0  0  0  0  0  0  0  0  0
   33.6845  -21.1320   39.6188 N   0  0  0  0  0  0  0  0  0  0  0  0
   33.9632  -22.2537   40.4865 C   0  0  0  0  0  0  0  0  0  0  0  0
   34.1088  -23.4285   39.5543 C   0  0  0  0  0  0  0  0  0  0  0  0
   34.4283  -22.7844   38.2891 N   0  0  0  0  0  0  0  0  0  0  0  0
   34.9031  -23.2587   37.4827 H   0  0  0  0  0  0  0  0  0  0  0  0
   35.4873  -16.7875   36.0138 C   0  0  0  0  0  0  0  0  0  0  0  0
   34.8314  -17.7810   35.0719 C   0  0  0  0  0  0  0  0  0  0  0  0
   35.7923  -18.3187   34.0465 C   0  0  0  0  0  0  0  0  0  0  0  0
   29.2388  -21.1512   35.5262 N   0  0  0  0  0  0  0  0  0  0  0  0
   28.9393  -21.6482   34.6386 H   0  0  0  0  0  0  0  0  0  0  0  0
   28.3858  -21.2060   36.6205 C   0  0  0  0  0  0  0  0  0  0  0  0
   27.9622  -20.0877   37.2932 N   0  0  0  0  0  0  0  0  0  0  0  0
   27.1600  -20.4968   38.2848 C   0  0  0  0  0  0  0  0  0  0  0  0
   27.1123  -21.8633   38.1938 C   0  0  0  0  0  0  0  0  0  0  0  0
   27.8541  -22.2356   37.1928 O   0  0  0  0  0  0  0  0  0  0  0  0
 16 17  1  0  0  0
 17 18  1  0  0  0
 17  1  1  0  0  0
  1  2  1  0  0  0
  2  3  2  0  0  0
  3 10  1  0  0  0
 10 11  2  0  0  0
 11 12  1  0  0  0
 12 13  1  0  0  0
 13 14  1  0  0  0
  3  4  1  0  0  0
  4  5  2  0  0  0
  5  6  1  0  0  0
  6 19  1  0  0  0
 19 21  1  0  0  0
 21 22  2  0  0  0
 22 23  1  0  0  0
 23 24  2  0  0  0
 24 25  1  0  0  0
  6  7  2  0  0  0
  7  8  1  0  0  0
  8  9  2  0  0  0
  9  1  1  0  0  0
 14 10  1  0  0  0
  9  4  1  0  0  0
 25 21  1  0  0  0
 14 15  1  0  0  0
 19 20  1  0  0  0
M  END
> <minimizedAffinity>
-5.49043

> <CNNscore>
0.4550451040

> <CNNaffinity>
4.3018860817

> <CNN_VS>
1.9575521946

> <CNNaffinity_variance>
0.9017341733

$$$$
[H]c1nc(N([H])c2c([H])c([H])c3c(c2[H])c(C2=NC([H])([H])C([H])([H])N2[H])c([H])n3C([H])(C([H])([H])[H])C([H])([H])[H])oc1[H]


 25 28  0  0  0  0  0  0  0  0999 V2000
   35.2421  -19.4643   36.6317 N   0  0  0  0  0  0  0  0  0  0  0  0
   35.0276  -18.1369   36.6596 C   0  0  0  0  0  0  0  0  0  0  0  0
   36.2593  -17.4584   36.6651 C   0  0  0  0  0  0  0  0  0  0  0  0
   37.2050  -18.4824   36.6378 C   0  0  0  0  0  0  0  0  0  0  0  0
   38.5714  -18.4634   36.6228 C   0  0  0  0  0  0  0  0  0  0  0  0
   39.3145  -19.6613   36.5892 C   0  0  0  0  0  0  0  0  0  0  0  0
   38.6657  -20.8694   36.5713 C   0  0  0  0  0  0  0  0  0  0  0  0
   37.2646  -20.8839   36.5858 C   0  0  0  0  0  0  0  0  0  0  0  0
   36.5645  -19.7069   36.6179 C   0  0  0  0  0  0  0  0  0  0  0  0
   36.4495  -16.0206   36.6808 C   0  0  0  0  0  0  0  0  0  0  0  0
   35.5698  -15.2318   36.1184 N   0  0  0  0  0  0  0  0  0  0  0  0
   35.9920  -13.8581   36.2722 C   0  0  0  0  0  0  0  0  0  0  0  0
   37.0618  -13.9057   37.3322 C   0  0  0  0  0  0  0  0  0  0  0  0
   37.4967  -15.2932   37.2738 N   0  0  0  0  0  0  0  0  0  0  0  0
   38.4216  -15.6426   37.6247 H   0  0  0  0  0  0  0  0  0  0  0  0
   34.0611  -21.0889   38.0179 C   0  0  0  0  0  0  0  0  0  0  0  0
   34.2473  -20.5341   36.6172 C   0  0  0  0  0  0  0  0  0  0  0  0
   32.9504  -20.0812   36.0033 C   0  0  0  0  0  0  0  0  0  0  0  0
   40.7180  -19.5491   36.5940 N   0  0  0  0  0  0  0  0  0  0  0  0
   41.2136  -19.6956   35.6680 H   0  0  0  0  0  0  0  0  0  0  0  0
   41.4950  -19.2595   37.7078 C   0  0  0  0  0  0  0  0  0  0  0  0
   42.6442  -18.5126   37.6422 N   0  0  0  0  0  0  0  0  0  0  0  0
   43.1390  -18.4295   38.8841 C   0  0  0  0  0  0  0  0  0  0  0  0
   42.2754  -19.1316   39.6836 C   0  0  0  0  0  0  0  0  0  0  0  0
   41.3182  -19.6039   38.9408 O   0  0  0  0  0  0  0  0  0  0  0  0
 16 17  1  0  0  0
 17 18  1  0  0  0
 17  1  1  0  0  0
  1  2  1  0  0  0
  2  3  2  0  0  0
  3 10  1  0  0  0
 10 11  2  0  0  0
 11 12  1  0  0  0
 12 13  1  0  0  0
 13 14  1  0  0  0
  3  4  1  0  0  0
  4  5  2  0  0  0
  5  6  1  0  0  0
  6 19  1  0  0  0
 19 21  1  0  0  0
 21 22  2  0  0  0
 22 23  1  0  0  0
 23 24  2  0  0  0
 24 25  1  0  0  0
  6  7  2  0  0  0
  7  8  1  0  0  0
  8  9  2  0  0  0
  9  1  1  0  0  0
 14 10  1  0  0  0
  9  4  1  0  0  0
 25 21  1  0  0  0
 14 15  1  0  0  0
 19 20  1  0  0  0
M  END
> <minimizedAffinity>
-5.27009

> <CNNscore>
0.4128680825

> <CNNaffinity>
4.9146928787

> <CNN_VS>
2.0291197300

> <CNNaffinity_variance>
0.3537837863

$$$$
[H]c1c([H])c(C(F)(F)F)c([H])c(N([H])C(=O)[C@]2([H])C([H])([H])C([H])([H])[C@@]([H])(N3C([H])([H])[C@]([H])(C([H])([H])[H])[C@@]([H])(N4C([H])([H])C([H])([H])C([H])(N5C(=O)OC([H])([H])C5([H])[H])C([H])([H])C4([H])[H])C3([H])[H])C2([H])[H])c1Cl


 38 42  0  0  0  0  0  0  0  0999 V2000
   31.1445  -21.0651   35.9692 C   0  0  0  0  0  0  0  0  0  0  0  0
   29.9760  -20.3963   35.3476 C   0  0  0  0  0  0  0  0  0  0  0  0
   30.5437  -19.0050   35.0085 C   0  0  0  0  0  0  0  0  0  0  0  0
   31.8921  -19.4246   34.4152 C   0  0  0  0  0  0  0  0  0  0  0  0
   32.3382  -20.5982   35.1831 C   0  0  0  0  0  0  0  0  0  0  0  0
   27.7892  -23.3369   35.9375 C   0  0  0  0  0  0  0  0  0  0  0  0
   29.1260  -23.8188   36.4028 C   0  0  0  0  0  0  0  0  0  0  0  0
   30.1717  -23.2396   35.4192 C   0  0  0  0  0  0  0  0  0  0  0  0
   31.0379  -22.4471   36.1892 N   0  0  0  0  0  0  0  0  0  0  0  0
   30.9882  -22.8966   37.5601 C   0  0  0  0  0  0  0  0  0  0  0  0
   29.5829  -23.2893   37.7237 C   0  0  0  0  0  0  0  0  0  0  0  0
   29.2025  -24.0171   38.8792 N   0  0  0  0  0  0  0  0  0  0  0  0
   30.1592  -24.9702   39.3279 C   0  0  0  0  0  0  0  0  0  0  0  0
   29.6444  -25.5101   40.6650 C   0  0  0  0  0  0  0  0  0  0  0  0
   30.0100  -24.3851   41.6571 C   0  0  0  0  0  0  0  0  0  0  0  0
   29.2786  -23.1817   41.2169 C   0  0  0  0  0  0  0  0  0  0  0  0
   28.5276  -23.3156   39.9054 C   0  0  0  0  0  0  0  0  0  0  0  0
   29.8747  -24.7996   43.0032 N   0  0  0  0  0  0  0  0  0  0  0  0
   28.8826  -25.7311   43.5588 C   0  0  0  0  0  0  0  0  0  0  0  0
   29.6977  -26.3949   44.6462 C   0  0  0  0  0  0  0  0  0  0  0  0
   30.4035  -25.2753   45.1920 O   0  0  0  0  0  0  0  0  0  0  0  0
   30.6496  -24.3951   44.1257 C   0  0  0  0  0  0  0  0  0  0  0  0
   31.4093  -23.3904   44.0759 O   0  0  0  0  0  0  0  0  0  0  0  0
   32.7805  -18.2427   34.4504 C   0  0  0  0  0  0  0  0  0  0  0  0
   32.9740  -17.6238   33.3920 O   0  0  0  0  0  0  0  0  0  0  0  0
   33.3829  -17.8454   35.6537 N   0  0  0  0  0  0  0  0  0  0  0  0
   33.1455  -18.4218   36.5138 H   0  0  0  0  0  0  0  0  0  0  0  0
   34.2719  -16.7575   35.8386 C   0  0  0  0  0  0  0  0  0  0  0  0
   33.9030  -15.4721   36.1057 C   0  0  0  0  0  0  0  0  0  0  0  0
   34.8007  -14.4174   36.2526 C   0  0  0  0  0  0  0  0  0  0  0  0
   36.1366  -14.7088   36.1160 C   0  0  0  0  0  0  0  0  0  0  0  0
   36.5308  -15.9816   35.8497 C   0  0  0  0  0  0  0  0  0  0  0  0
   35.6488  -17.0177   35.7057 C   0  0  0  0  0  0  0  0  0  0  0  0
   36.2232  -18.6379   35.3773 Cl  0  0  0  0  0  0  0  0  0  0  0  0
   34.3006  -13.0601   36.5405 C   0  0  0  0  0  0  0  0  0  0  0  0
   34.3587  -12.7786   37.8958 F   0  0  0  0  0  0  0  0  0  0  0  0
   35.0113  -12.0986   35.8851 F   0  0  0  0  0  0  0  0  0  0  0  0
   32.9630  -12.9583   36.1809 F   0  0  0  0  0  0  0  0  0  0  0  0
  6  7  1  0  0  0
  7  8  1  0  0  0
  8  9  1  0  0  0
  9  1  1  0  0  0
  1  2  1  0  0  0
  2  3  1  0  0  0
  3  4  1  0  0  0
  4  5  1  0  0  0
  4 24  1  0  0  0
 24 25  2  0  0  0
 24 26  1  0  0  0
 26 28  1  0  0  0
 28 29  2  0  0  0
 29 30  1  0  0  0
 30 31  2  0  0  0
 31 32  1  0  0  0
 32 33  2  0  0  0
 33 34  1  0  0  0
 30 35  1  0  0  0
 35 36  1  0  0  0
 35 37  1  0  0  0
 35 38  1  0  0  0
  9 10  1  0  0  0
 10 11  1  0  0  0
 11 12  1  0  0  0
 12 13  1  0  0  0
 13 14  1  0  0  0
 14 15  1  0  0  0
 15 16  1  0  0  0
 16 17  1  0  0  0
 15 18  1  0  0  0
 18 19  1  0  0  0
 19 20  1  0  0  0
 20 21  1  0  0  0
 21 22  1  0  0  0
 22 23  2  0  0  0
 11  7  1  0  0  0
 17 12  1  0  0  0
 22 18  1  0  0  0
  5  1  1  0  0  0
 33 28  1  0  0  0
 26 27  1  0  0  0
M  END
> <minimizedAffinity>
-6.56520

> <CNNscore>
0.3022160828

> <CNNaffinity>
5.3906507492

> <CNN_VS>
1.6291413307

> <CNNaffinity_variance>
0.1533368081

$$$$
[H]c1c([H])c(C(F)(F)F)c([H])c(N([H])C(=O)[C@]2([H])C([H])([H])C([H])([H])[C@@]([H])(N3C([H])([H])[C@]([H])(C([H])([H])[H])[C@@]([H])(N4C([H])([H])C([H])([H])C([H])(N5C(=O)OC([H])([H])C5([H])[H])C([H])([H])C4([H])[H])C3([H])[H])C2([H])[H])c1Cl


 38 42  0  0  0  0  0  0  0  0999 V2000
   34.0070  -19.2231   35.2786 C   0  0  0  0  0  0  0  0  0  0  0  0
   33.9002  -17.7702   35.0013 C   0  0  0  0  0  0  0  0  0  0  0  0
   35.1885  -17.2236   35.6451 C   0  0  0  0  0  0  0  0  0  0  0  0
   36.1840  -18.2712   35.1371 C   0  0  0  0  0  0  0  0  0  0  0  0
   35.4648  -19.5552   35.1190 C   0  0  0  0  0  0  0  0  0  0  0  0
   29.9785  -18.8396   35.0688 C   0  0  0  0  0  0  0  0  0  0  0  0
   30.7326  -20.0475   34.6125 C   0  0  0  0  0  0  0  0  0  0  0  0
   32.0085  -19.5308   33.9043 C   0  0  0  0  0  0  0  0  0  0  0  0
   33.0953  -20.0608   34.6179 N   0  0  0  0  0  0  0  0  0  0  0  0
   32.6619  -21.2476   35.3162 C   0  0  0  0  0  0  0  0  0  0  0  0
   31.2830  -20.9167   35.6967 C   0  0  0  0  0  0  0  0  0  0  0  0
   30.4412  -21.9440   36.1925 N   0  0  0  0  0  0  0  0  0  0  0  0
   29.1221  -21.9465   35.6587 C   0  0  0  0  0  0  0  0  0  0  0  0
   28.4432  -23.2173   36.1768 C   0  0  0  0  0  0  0  0  0  0  0  0
   29.0249  -24.3180   35.2639 C   0  0  0  0  0  0  0  0  0  0  0  0
   30.4828  -24.3261   35.4910 C   0  0  0  0  0  0  0  0  0  0  0  0
   31.0113  -23.2234   36.3892 C   0  0  0  0  0  0  0  0  0  0  0  0
   28.3184  -25.5378   35.3866 N   0  0  0  0  0  0  0  0  0  0  0  0
   27.7143  -26.1056   36.6004 C   0  0  0  0  0  0  0  0  0  0  0  0
   26.5042  -26.7987   36.0150 C   0  0  0  0  0  0  0  0  0  0  0  0
   27.0595  -27.3828   34.8318 O   0  0  0  0  0  0  0  0  0  0  0  0
   28.0509  -26.5001   34.3733 C   0  0  0  0  0  0  0  0  0  0  0  0
   28.6591  -26.4828   33.2694 O   0  0  0  0  0  0  0  0  0  0  0  0
   37.3813  -18.2034   36.0027 C   0  0  0  0  0  0  0  0  0  0  0  0
   37.4052  -17.3498   36.9034 O   0  0  0  0  0  0  0  0  0  0  0  0
   38.4538  -19.0846   35.7979 N   0  0  0  0  0  0  0  0  0  0  0  0
   38.3389  -19.7953   35.0168 H   0  0  0  0  0  0  0  0  0  0  0  0
   39.6699  -19.1240   36.5242 C   0  0  0  0  0  0  0  0  0  0  0  0
   40.7845  -18.3917   36.2395 C   0  0  0  0  0  0  0  0  0  0  0  0
   41.9764  -18.4749   36.9552 C   0  0  0  0  0  0  0  0  0  0  0  0
   42.0134  -19.3553   38.0096 C   0  0  0  0  0  0  0  0  0  0  0  0
   40.9164  -20.0971   38.3143 C   0  0  0  0  0  0  0  0  0  0  0  0
   39.7454  -20.0149   37.6114 C   0  0  0  0  0  0  0  0  0  0  0  0
   38.3635  -20.9883   38.0650 Cl  0  0  0  0  0  0  0  0  0  0  0  0
   43.1279  -17.6392   36.5667 C   0  0  0  0  0  0  0  0  0  0  0  0
   42.8057  -16.2921   36.5967 F   0  0  0  0  0  0  0  0  0  0  0  0
   44.2021  -17.8284   37.3848 F   0  0  0  0  0  0  0  0  0  0  0  0
   43.5007  -17.9191   35.2584 F   0  0  0  0  0  0  0  0  0  0  0  0
  6  7  1  0  0  0
  7  8  1  0  0  0
  8  9  1  0  0  0
  9  1  1  0  0  0
  1  2  1  0  0  0
  2  3  1  0  0  0
  3  4  1  0  0  0
  4  5  1  0  0  0
  4 24  1  0  0  0
 24 25  2  0  0  0
 24 26  1  0  0  0
 26 28  1  0  0  0
 28 29  2  0  0  0
 29 30  1  0  0  0
 30 31  2  0  0  0
 31 32  1  0  0  0
 32 33  2  0  0  0
 33 34  1  0  0  0
 30 35  1  0  0  0
 35 36  1  0  0  0
 35 37  1  0  0  0
 35 38  1  0  0  0
  9 10  1  0  0  0
 10 11  1  0  0  0
 11 12  1  0  0  0
 12 13  1  0  0  0
 13 14  1  0  0  0
 14 15  1  0  0  0
 15 16  1  0  0  0
 16 17  1  0  0  0
 15 18  1  0  0  0
 18 19  1  0  0  0
 19 20  1  0  0  0
 20 21  1  0  0  0
 21 22  1  0  0  0
 22 23  2  0  0  0
 11  7  1  0  0  0
 17 12  1  0  0  0
 22 18  1  0  0  0
  5  1  1  0  0  0
 33 28  1  0  0  0
 26 27  1  0  0  0
M  END
> <minimizedAffinity>
-6.56273

> <CNNscore>
0.2977467179

> <CNNaffinity>
5.6211194992

> <CNN_VS>
1.6736699343

> <CNNaffinity_variance>
0.2218863666

$$$$
[H]c1c([H])c(C(F)(F)F)c([H])c(N([H])C(=O)[C@]2([H])C([H])([H])C([H])([H])[C@@]([H])(N3C([H])([H])[C@]([H])(C([H])([H])[H])[C@@]([H])(N4C([H])([H])C([H])([H])C([H])(N5C(=O)OC([H])([H])C5([H])[H])C([H])([H])C4([H])[H])C3([H])[H])C2([H])[H])c1Cl


 38 42  0  0  0  0  0  0  0  0999 V2000
   36.0555  -16.4191   35.7299 C   0  0  0  0  0  0  0  0  0  0  0  0
   36.9626  -15.8729   36.7680 C   0  0  0  0  0  0  0  0  0  0  0  0
   36.4247  -14.4402   36.9446 C   0  0  0  0  0  0  0  0  0  0  0  0
   34.9233  -14.7413   36.9822 C   0  0  0  0  0  0  0  0  0  0  0  0
   34.6981  -15.8554   36.0471 C   0  0  0  0  0  0  0  0  0  0  0  0
   38.6747  -19.0820   37.3011 C   0  0  0  0  0  0  0  0  0  0  0  0
   37.7271  -19.3927   36.1870 C   0  0  0  0  0  0  0  0  0  0  0  0
   36.3876  -18.7018   36.5402 C   0  0  0  0  0  0  0  0  0  0  0  0
   36.1232  -17.8013   35.4959 N   0  0  0  0  0  0  0  0  0  0  0  0
   36.8258  -18.2381   34.3129 C   0  0  0  0  0  0  0  0  0  0  0  0
   38.0687  -18.7968   34.8595 C   0  0  0  0  0  0  0  0  0  0  0  0
   38.9150  -19.5524   34.0095 N   0  0  0  0  0  0  0  0  0  0  0  0
   40.2908  -19.1928   34.0618 C   0  0  0  0  0  0  0  0  0  0  0  0
   41.0452  -20.2272   33.2220 C   0  0  0  0  0  0  0  0  0  0  0  0
   41.1265  -21.4468   34.1651 C   0  0  0  0  0  0  0  0  0  0  0  0
   39.7367  -21.8551   34.4458 C   0  0  0  0  0  0  0  0  0  0  0  0
   38.6612  -20.9390   33.8928 C   0  0  0  0  0  0  0  0  0  0  0  0
   42.0322  -22.4251   33.6911 N   0  0  0  0  0  0  0  0  0  0  0  0
   41.8324  -23.3693   32.5824 C   0  0  0  0  0  0  0  0  0  0  0  0
   43.2402  -23.4671   32.0385 C   0  0  0  0  0  0  0  0  0  0  0  0
   44.0056  -23.5232   33.2471 O   0  0  0  0  0  0  0  0  0  0  0  0
   43.3286  -22.7326   34.1901 C   0  0  0  0  0  0  0  0  0  0  0  0
   43.7194  -22.3162   35.3138 O   0  0  0  0  0  0  0  0  0  0  0  0
   34.2094  -13.4810   36.6832 C   0  0  0  0  0  0  0  0  0  0  0  0
   33.3429  -13.4953   35.7946 O   0  0  0  0  0  0  0  0  0  0  0  0
   34.5158  -12.3088   37.3909 N   0  0  0  0  0  0  0  0  0  0  0  0
   35.2569  -12.3934   38.1472 H   0  0  0  0  0  0  0  0  0  0  0  0
   33.9394  -11.0283   37.2012 C   0  0  0  0  0  0  0  0  0  0  0  0
   34.5221   -9.9899   36.5363 C   0  0  0  0  0  0  0  0  0  0  0  0
   33.9420   -8.7319   36.3925 C   0  0  0  0  0  0  0  0  0  0  0  0
   32.7062   -8.5435   36.9629 C   0  0  0  0  0  0  0  0  0  0  0  0
   32.1037   -9.5618   37.6310 C   0  0  0  0  0  0  0  0  0  0  0  0
   32.6735  -10.7978   37.7719 C   0  0  0  0  0  0  0  0  0  0  0  0
   31.8375  -12.0717   38.6327 Cl  0  0  0  0  0  0  0  0  0  0  0  0
   34.6551   -7.6728   35.6542 C   0  0  0  0  0  0  0  0  0  0  0  0
   34.6556   -7.9215   34.2913 F   0  0  0  0  0  0  0  0  0  0  0  0
   34.1009   -6.4429   35.8524 F   0  0  0  0  0  0  0  0  0  0  0  0
   35.9884   -7.6361   36.0415 F   0  0  0  0  0  0  0  0  0  0  0  0
  6  7  1  0  0  0
  7  8  1  0  0  0
  8  9  1  0  0  0
  9  1  1  0  0  0
  1  2  1  0  0  0
  2  3  1  0  0  0
  3  4  1  0  0  0
  4  5  1  0  0  0
  4 24  1  0  0  0
 24 25  2  0  0  0
 24 26  1  0  0  0
 26 28  1  0  0  0
 28 29  2  0  0  0
 29 30  1  0  0  0
 30 31  2  0  0  0
 31 32  1  0  0  0
 32 33  2  0  0  0
 33 34  1  0  0  0
 30 35  1  0  0  0
 35 36  1  0  0  0
 35 37  1  0  0  0
 35 38  1  0  0  0
  9 10  1  0  0  0
 10 11  1  0  0  0
 11 12  1  0  0  0
 12 13  1  0  0  0
 13 14  1  0  0  0
 14 15  1  0  0  0
 15 16  1  0  0  0
 16 17  1  0  0  0
 15 18  1  0  0  0
 18 19  1  0  0  0
 19 20  1  0  0  0
 20 21  1  0  0  0
 21 22  1  0  0  0
 22 23  2  0  0  0
 11  7  1  0  0  0
 17 12  1  0  0  0
 22 18  1  0  0  0
  5  1  1  0  0  0
 33 28  1  0  0  0
 26 27  1  0  0  0
M  END
> <minimizedAffinity>
-9.11118

> <CNNscore>
0.2943060100

> <CNNaffinity>
6.4184989929

> <CNN_VS>
1.8890028000

> <CNNaffinity_variance>
0.1093160361

$$$$
[H]c1c([H])c(C(F)(F)F)c([H])c(N([H])C(=O)[C@]2([H])C([H])([H])C([H])([H])[C@@]([H])(N3C([H])([H])[C@]([H])(C([H])([H])[H])[C@@]([H])(N4C([H])([H])C([H])([H])C([H])(N5C(=O)OC([H])([H])C5([H])[H])C([H])([H])C4([H])[H])C3([H])[H])C2([H])[H])c1Cl


 38 42  0  0  0  0  0  0  0  0999 V2000
   34.0328  -19.3343   35.2343 C   0  0  0  0  0  0  0  0  0  0  0  0
   33.8267  -17.8695   35.1306 C   0  0  0  0  0  0  0  0  0  0  0  0
   35.1517  -17.3173   35.6895 C   0  0  0  0  0  0  0  0  0  0  0  0
   36.1325  -18.2458   34.9668 C   0  0  0  0  0  0  0  0  0  0  0  0
   35.4775  -19.5613   34.8849 C   0  0  0  0  0  0  0  0  0  0  0  0
   30.0165  -18.8332   35.0376 C   0  0  0  0  0  0  0  0  0  0  0  0
   30.7322  -20.0678   34.5912 C   0  0  0  0  0  0  0  0  0  0  0  0
   32.0196  -19.5970   33.8720 C   0  0  0  0  0  0  0  0  0  0  0  0
   33.0934  -20.1516   34.5866 N   0  0  0  0  0  0  0  0  0  0  0  0
   32.6281  -21.3173   35.2997 C   0  0  0  0  0  0  0  0  0  0  0  0
   31.2614  -20.9413   35.6825 C   0  0  0  0  0  0  0  0  0  0  0  0
   30.3917  -21.9377   36.1930 N   0  0  0  0  0  0  0  0  0  0  0  0
   29.0731  -21.9117   35.6588 C   0  0  0  0  0  0  0  0  0  0  0  0
   28.3594  -23.1556   36.1955 C   0  0  0  0  0  0  0  0  0  0  0  0
   28.9107  -24.2853   35.2991 C   0  0  0  0  0  0  0  0  0  0  0  0
   30.3678  -24.3301   35.5268 C   0  0  0  0  0  0  0  0  0  0  0  0
   30.9264  -23.2292   36.4088 C   0  0  0  0  0  0  0  0  0  0  0  0
   28.1708  -25.4832   35.4395 N   0  0  0  0  0  0  0  0  0  0  0  0
   27.5304  -26.0039   36.6558 C   0  0  0  0  0  0  0  0  0  0  0  0
   26.3137  -26.6811   36.0656 C   0  0  0  0  0  0  0  0  0  0  0  0
   26.8751  -27.3096   34.9083 O   0  0  0  0  0  0  0  0  0  0  0  0
   27.8972  -26.4644   34.4463 C   0  0  0  0  0  0  0  0  0  0  0  0
   28.5256  -26.4913   33.3540 O   0  0  0  0  0  0  0  0  0  0  0  0
   37.4147  -18.1974   35.7023 C   0  0  0  0  0  0  0  0  0  0  0  0
   37.5540  -17.3311   36.5802 O   0  0  0  0  0  0  0  0  0  0  0  0
   38.4374  -19.1104   35.4032 N   0  0  0  0  0  0  0  0  0  0  0  0
   38.2238  -19.8294   34.6510 H   0  0  0  0  0  0  0  0  0  0  0  0
   39.7211  -19.1717   36.0000 C   0  0  0  0  0  0  0  0  0  0  0  0
   39.9772  -19.5400   37.2878 C   0  0  0  0  0  0  0  0  0  0  0  0
   41.2491  -19.5613   37.8549 C   0  0  0  0  0  0  0  0  0  0  0  0
   42.2987  -19.1840   37.0523 C   0  0  0  0  0  0  0  0  0  0  0  0
   42.0708  -18.8124   35.7653 C   0  0  0  0  0  0  0  0  0  0  0  0
   40.8212  -18.7919   35.2082 C   0  0  0  0  0  0  0  0  0  0  0  0
   40.5974  -18.3166   33.5388 Cl  0  0  0  0  0  0  0  0  0  0  0  0
   41.4215  -19.9753   39.2599 C   0  0  0  0  0  0  0  0  0  0  0  0
   40.2247  -20.4067   39.8086 F   0  0  0  0  0  0  0  0  0  0  0  0
   42.3279  -20.9852   39.3927 F   0  0  0  0  0  0  0  0  0  0  0  0
   41.8326  -18.8943   40.0289 F   0  0  0  0  0  0  0  0  0  0  0  0
  6  7  1  0  0  0
  7  8  1  0  0  0
  8  9  1  0  0  0
  9  1  1  0  0  0
  1  2  1  0  0  0
  2  3  1  0  0  0
  3  4  1  0  0  0
  4  5  1  0  0  0
  4 24  1  0  0  0
 24 25  2  0  0  0
 24 26  1  0  0  0
 26 28  1  0  0  0
 28 29  2  0  0  0
 29 30  1  0  0  0
 30 31  2  0  0  0
 31 32  1  0  0  0
 32 33  2  0  0  0
 33 34  1  0  0  0
 30 35  1  0  0  0
 35 36  1  0  0  0
 35 37  1  0  0  0
 35 38  1  0  0  0
  9 10  1  0  0  0
 10 11  1  0  0  0
 11 12  1  0  0  0
 12 13  1  0  0  0
 13 14  1  0  0  0
 14 15  1  0  0  0
 15 16  1  0  0  0
 16 17  1  0  0  0
 15 18  1  0  0  0
 18 19  1  0  0  0
 19 20  1  0  0  0
 20 21  1  0  0  0
 21 22  1  0  0  0
 22 23  2  0  0  0
 11  7  1  0  0  0
 17 12  1  0  0  0
 22 18  1  0  0  0
  5  1  1  0  0  0
 33 28  1  0  0  0
 26 27  1  0  0  0
M  END
> <minimizedAffinity>
-6.51387

> <CNNscore>
0.2804798484

> <CNNaffinity>
5.6248335838

> <CNN_VS>
1.5776524544

> <CNNaffinity_variance>
0.1175954565

$$$$
[H]c1c([H])c(C(F)(F)F)c([H])c(N([H])C(=O)[C@]2([H])C([H])([H])C([H])([H])[C@@]([H])(N3C([H])([H])[C@]([H])(C([H])([H])[H])[C@@]([H])(N4C([H])([H])C([H])([H])C([H])(N5C(=O)OC([H])([H])C5([H])[H])C([H])([H])C4([H])[H])C3([H])[H])C2([H])[H])c1Cl


 38 42  0  0  0  0  0  0  0  0999 V2000
   34.9173  -16.8331   35.7309 C   0  0  0  0  0  0  0  0  0  0  0  0
   36.0887  -17.7101   35.4903 C   0  0  0  0  0  0  0  0  0  0  0  0
   35.4400  -19.1062   35.4341 C   0  0  0  0  0  0  0  0  0  0  0  0
   34.2309  -18.7830   34.5511 C   0  0  0  0  0  0  0  0  0  0  0  0
   33.8009  -17.4232   34.9146 C   0  0  0  0  0  0  0  0  0  0  0  0
   36.9370  -14.3823   38.2476 C   0  0  0  0  0  0  0  0  0  0  0  0
   36.0955  -13.9067   37.1068 C   0  0  0  0  0  0  0  0  0  0  0  0
   36.3640  -14.8720   35.9268 C   0  0  0  0  0  0  0  0  0  0  0  0
   35.1264  -15.4512   35.6041 N   0  0  0  0  0  0  0  0  0  0  0  0
   34.0696  -14.5782   36.0569 C   0  0  0  0  0  0  0  0  0  0  0  0
   34.6176  -14.0200   37.2994 C   0  0  0  0  0  0  0  0  0  0  0  0
   33.9586  -12.9232   37.9097 N   0  0  0  0  0  0  0  0  0  0  0  0
   33.9550  -11.7249   37.1423 C   0  0  0  0  0  0  0  0  0  0  0  0
   33.0555  -10.7330   37.8848 C   0  0  0  0  0  0  0  0  0  0  0  0
   31.6345  -11.2075   37.5119 C   0  0  0  0  0  0  0  0  0  0  0  0
   31.5013  -12.5833   38.0279 C   0  0  0  0  0  0  0  0  0  0  0  0
   32.7626  -13.1860   38.6175 C   0  0  0  0  0  0  0  0  0  0  0  0
   30.6475  -10.2576   37.8666 N   0  0  0  0  0  0  0  0  0  0  0  0
   29.2593  -10.5170   38.2742 C   0  0  0  0  0  0  0  0  0  0  0  0
   29.0437   -9.3976   39.2681 C   0  0  0  0  0  0  0  0  0  0  0  0
   29.6804   -8.3025   38.6010 O   0  0  0  0  0  0  0  0  0  0  0  0
   30.7650   -8.8399   37.8888 C   0  0  0  0  0  0  0  0  0  0  0  0
   31.7270   -8.2483   37.3288 O   0  0  0  0  0  0  0  0  0  0  0  0
   33.2357  -19.8592   34.7487 C   0  0  0  0  0  0  0  0  0  0  0  0
   33.1414  -20.7371   33.8763 O   0  0  0  0  0  0  0  0  0  0  0  0
   32.4258  -19.8728   35.8943 N   0  0  0  0  0  0  0  0  0  0  0  0
   32.5884  -19.0933   36.5973 H   0  0  0  0  0  0  0  0  0  0  0  0
   31.4171  -20.8171   36.2089 C   0  0  0  0  0  0  0  0  0  0  0  0
   31.5939  -21.9421   36.9592 C   0  0  0  0  0  0  0  0  0  0  0  0
   30.5882  -22.8678   37.2260 C   0  0  0  0  0  0  0  0  0  0  0  0
   29.3476  -22.6160   36.6915 C   0  0  0  0  0  0  0  0  0  0  0  0
   29.1448  -21.5021   35.9401 C   0  0  0  0  0  0  0  0  0  0  0  0
   30.1328  -20.5925   35.6783 C   0  0  0  0  0  0  0  0  0  0  0  0
   29.8018  -19.1698   34.7144 Cl  0  0  0  0  0  0  0  0  0  0  0  0
   30.8812  -24.0557   38.0497 C   0  0  0  0  0  0  0  0  0  0  0  0
   31.0406  -23.7171   39.3836 F   0  0  0  0  0  0  0  0  0  0  0  0
   29.8936  -24.9927   37.9735 F   0  0  0  0  0  0  0  0  0  0  0  0
   32.0811  -24.6295   37.6497 F   0  0  0  0  0  0  0  0  0  0  0  0
  6  7  1  0  0  0
  7  8  1  0  0  0
  8  9  1  0  0  0
  9  1  1  0  0  0
  1  2  1  0  0  0
  2  3  1  0  0  0
  3  4  1  0  0  0
  4  5  1  0  0  0
  4 24  1  0  0  0
 24 25  2  0  0  0
 24 26  1  0  0  0
 26 28  1  0  0  0
 28 29  2  0  0  0
 29 30  1  0  0  0
 30 31  2  0  0  0
 31 32  1  0  0  0
 32 33  2  0  0  0
 33 34  1  0  0  0
 30 35  1  0  0  0
 35 36  1  0  0  0
 35 37  1  0  0  0
 35 38  1  0  0  0
  9 10  1  0  0  0
 10 11  1  0  0  0
 11 12  1  0  0  0
 12 13  1  0  0  0
 13 14  1  0  0  0
 14 15  1  0  0  0
 15 16  1  0  0  0
 16 17  1  0  0  0
 15 18  1  0  0  0
 18 19  1  0  0  0
 19 20  1  0  0  0
 20 21  1  0  0  0
 21 22  1  0  0  0
 22 23  2  0  0  0
 11  7  1  0  0  0
 17 12  1  0  0  0
 22 18  1  0  0  0
  5  1  1  0  0  0
 33 28  1  0  0  0
 26 27  1  0  0  0
M  END
> <minimizedAffinity>
-8.61859

> <CNNscore>
0.2730914950

> <CNNaffinity>
6.5590486526

> <CNN_VS>
1.7912204266

> <CNNaffinity_variance>
0.1608456373

$$$$
[H]c1c([H])c(C(F)(F)F)c([H])c(N([H])C(=O)[C@]2([H])C([H])([H])C([H])([H])[C@@]([H])(N3C([H])([H])[C@]([H])(C([H])([H])[H])[C@@]([H])(N4C([H])([H])C([H])([H])C([H])(N5C(=O)OC([H])([H])C5([H])[H])C([H])([H])C4([H])[H])C3([H])[H])C2([H])[H])c1Cl


 38 42  0  0  0  0  0  0  0  0999 V2000
   38.2714  -18.9232   34.6357 C   0  0  0  0  0  0  0  0  0  0  0  0
   38.5623  -20.1809   33.9060 C   0  0  0  0  0  0  0  0  0  0  0  0
   39.6545  -20.8186   34.7854 C   0  0  0  0  0  0  0  0  0  0  0  0
   39.0333  -20.5801   36.1651 C   0  0  0  0  0  0  0  0  0  0  0  0
   38.3480  -19.2795   36.0945 C   0  0  0  0  0  0  0  0  0  0  0  0
   35.5324  -17.0504   36.9617 C   0  0  0  0  0  0  0  0  0  0  0  0
   35.3808  -17.2615   35.4893 C   0  0  0  0  0  0  0  0  0  0  0  0
   36.7719  -17.0053   34.8603 C   0  0  0  0  0  0  0  0  0  0  0  0
   37.1409  -18.2009   34.2234 N   0  0  0  0  0  0  0  0  0  0  0  0
   35.9486  -18.9558   33.9193 C   0  0  0  0  0  0  0  0  0  0  0  0
   35.0756  -18.6611   35.0625 C   0  0  0  0  0  0  0  0  0  0  0  0
   33.7096  -19.0349   34.9987 N   0  0  0  0  0  0  0  0  0  0  0  0
   33.3820  -19.9260   33.9388 C   0  0  0  0  0  0  0  0  0  0  0  0
   31.9233  -20.3400   34.1509 C   0  0  0  0  0  0  0  0  0  0  0  0
   32.0224  -21.3977   35.2711 C   0  0  0  0  0  0  0  0  0  0  0  0
   32.5898  -20.7122   36.4480 C   0  0  0  0  0  0  0  0  0  0  0  0
   33.0377  -19.2809   36.2188 C   0  0  0  0  0  0  0  0  0  0  0  0
   30.8149  -22.1180   35.4295 N   0  0  0  0  0  0  0  0  0  0  0  0
   30.5221  -23.4868   34.9810 C   0  0  0  0  0  0  0  0  0  0  0  0
   29.5954  -23.9519   36.0820 C   0  0  0  0  0  0  0  0  0  0  0  0
   28.7824  -22.7894   36.2752 O   0  0  0  0  0  0  0  0  0  0  0  0
   29.6060  -21.6771   36.0366 C   0  0  0  0  0  0  0  0  0  0  0  0
   29.3970  -20.4587   36.2829 O   0  0  0  0  0  0  0  0  0  0  0  0
   40.1158  -20.6963   37.1662 C   0  0  0  0  0  0  0  0  0  0  0  0
   40.4826  -21.8332   37.5030 O   0  0  0  0  0  0  0  0  0  0  0  0
   40.7007  -19.5442   37.7134 N   0  0  0  0  0  0  0  0  0  0  0  0
   40.3380  -18.6132   37.3527 H   0  0  0  0  0  0  0  0  0  0  0  0
   41.7226  -19.4956   38.6938 C   0  0  0  0  0  0  0  0  0  0  0  0
   41.5227  -19.4321   40.0414 C   0  0  0  0  0  0  0  0  0  0  0  0
   42.5491  -19.3549   40.9795 C   0  0  0  0  0  0  0  0  0  0  0  0
   43.8365  -19.3422   40.4993 C   0  0  0  0  0  0  0  0  0  0  0  0
   44.0632  -19.4044   39.1610 C   0  0  0  0  0  0  0  0  0  0  0  0
   43.0548  -19.4806   38.2394 C   0  0  0  0  0  0  0  0  0  0  0  0
   43.4153  -19.5726   36.5293 Cl  0  0  0  0  0  0  0  0  0  0  0  0
   42.2282  -19.2895   42.4176 C   0  0  0  0  0  0  0  0  0  0  0  0
   42.7542  -20.3737   43.1011 F   0  0  0  0  0  0  0  0  0  0  0  0
   42.7093  -18.1557   43.0025 F   0  0  0  0  0  0  0  0  0  0  0  0
   40.8528  -19.3455   42.6025 F   0  0  0  0  0  0  0  0  0  0  0  0
  6  7  1  0  0  0
  7  8  1  0  0  0
  8  9  1  0  0  0
  9  1  1  0  0  0
  1  2  1  0  0  0
  2  3  1  0  0  0
  3  4  1  0  0  0
  4  5  1  0  0  0
  4 24  1  0  0  0
 24 25  2  0  0  0
 24 26  1  0  0  0
 26 28  1  0  0  0
 28 29  2  0  0  0
 29 30  1  0  0  0
 30 31  2  0  0  0
 31 32  1  0  0  0
 32 33  2  0  0  0
 33 34  1  0  0  0
 30 35  1  0  0  0
 35 36  1  0  0  0
 35 37  1  0  0  0
 35 38  1  0  0  0
  9 10  1  0  0  0
 10 11  1  0  0  0
 11 12  1  0  0  0
 12 13  1  0  0  0
 13 14  1  0  0  0
 14 15  1  0  0  0
 15 16  1  0  0  0
 16 17  1  0  0  0
 15 18  1  0  0  0
 18 19  1  0  0  0
 19 20  1  0  0  0
 20 21  1  0  0  0
 21 22  1  0  0  0
 22 23  2  0  0  0
 11  7  1  0  0  0
 17 12  1  0  0  0
 22 18  1  0  0  0
  5  1  1  0  0  0
 33 28  1  0  0  0
 26 27  1  0  0  0
M  END
> <minimizedAffinity>
-7.17695

> <CNNscore>
0.2723951042

> <CNNaffinity>
5.6979646683

> <CNN_VS>
1.5520976782

> <CNNaffinity_variance>
0.1999000609

$$$$
[H]c1c([H])c(C(F)(F)F)c([H])c(N([H])C(=O)[C@]2([H])C([H])([H])C([H])([H])[C@@]([H])(N3C([H])([H])[C@]([H])(C([H])([H])[H])[C@@]([H])(N4C([H])([H])C([H])([H])C([H])(N5C(=O)OC([H])([H])C5([H])[H])C([H])([H])C4([H])[H])C3([H])[H])C2([H])[H])c1Cl


 38 42  0  0  0  0  0  0  0  0999 V2000
   36.3267  -16.2688   36.7115 C   0  0  0  0  0  0  0  0  0  0  0  0
   37.1115  -15.5641   37.7539 C   0  0  0  0  0  0  0  0  0  0  0  0
   36.5603  -14.1289   37.6572 C   0  0  0  0  0  0  0  0  0  0  0  0
   35.0636  -14.4430   37.5694 C   0  0  0  0  0  0  0  0  0  0  0  0
   34.9434  -15.6845   36.7881 C   0  0  0  0  0  0  0  0  0  0  0  0
   36.7323  -18.6889   33.4868 C   0  0  0  0  0  0  0  0  0  0  0  0
   36.4402  -19.1745   34.8705 C   0  0  0  0  0  0  0  0  0  0  0  0
   37.3101  -18.3262   35.8297 C   0  0  0  0  0  0  0  0  0  0  0  0
   36.4174  -17.6692   36.6915 N   0  0  0  0  0  0  0  0  0  0  0  0
   35.1809  -18.4127   36.7390 C   0  0  0  0  0  0  0  0  0  0  0  0
   35.0536  -18.9216   35.3677 C   0  0  0  0  0  0  0  0  0  0  0  0
   34.0759  -19.9096   35.0891 N   0  0  0  0  0  0  0  0  0  0  0  0
   33.8481  -20.8395   36.1418 C   0  0  0  0  0  0  0  0  0  0  0  0
   32.6520  -21.6960   35.7173 C   0  0  0  0  0  0  0  0  0  0  0  0
   31.4466  -20.7755   36.0060 C   0  0  0  0  0  0  0  0  0  0  0  0
   31.6149  -19.5823   35.1546 C   0  0  0  0  0  0  0  0  0  0  0  0
   32.9185  -19.5083   34.3820 C   0  0  0  0  0  0  0  0  0  0  0  0
   30.2183  -21.4754   35.9479 N   0  0  0  0  0  0  0  0  0  0  0  0
   29.9825  -22.8309   35.4305 C   0  0  0  0  0  0  0  0  0  0  0  0
   28.8783  -23.2965   36.3531 C   0  0  0  0  0  0  0  0  0  0  0  0
   28.0631  -22.1222   36.4313 O   0  0  0  0  0  0  0  0  0  0  0  0
   28.9324  -21.0219   36.3544 C   0  0  0  0  0  0  0  0  0  0  0  0
   28.7048  -19.8040   36.5863 O   0  0  0  0  0  0  0  0  0  0  0  0
   34.3910  -13.2501   37.0107 C   0  0  0  0  0  0  0  0  0  0  0  0
   33.9978  -13.2965   35.8343 O   0  0  0  0  0  0  0  0  0  0  0  0
   34.2117  -12.1038   37.7998 N   0  0  0  0  0  0  0  0  0  0  0  0
   34.5620  -12.1599   38.8011 H   0  0  0  0  0  0  0  0  0  0  0  0
   33.6128  -10.8836   37.3995 C   0  0  0  0  0  0  0  0  0  0  0  0
   34.2434   -9.8752   36.7322 C   0  0  0  0  0  0  0  0  0  0  0  0
   33.6346   -8.6735   36.3786 C   0  0  0  0  0  0  0  0  0  0  0  0
   32.3170   -8.5112   36.7331 C   0  0  0  0  0  0  0  0  0  0  0  0
   31.6655   -9.5005   37.3987 C   0  0  0  0  0  0  0  0  0  0  0  0
   32.2635  -10.6813   37.7456 C   0  0  0  0  0  0  0  0  0  0  0  0
   31.3633  -11.9217   38.5904 Cl  0  0  0  0  0  0  0  0  0  0  0  0
   34.4044   -7.6431   35.6568 C   0  0  0  0  0  0  0  0  0  0  0  0
   33.8532   -6.3847   35.8355 F   0  0  0  0  0  0  0  0  0  0  0  0
   35.7042   -7.5897   36.0650 F   0  0  0  0  0  0  0  0  0  0  0  0
   34.3689   -7.8908   34.2906 F   0  0  0  0  0  0  0  0  0  0  0  0
  6  7  1  0  0  0
  7  8  1  0  0  0
  8  9  1  0  0  0
  9  1  1  0  0  0
  1  2  1  0  0  0
  2  3  1  0  0  0
  3  4  1  0  0  0
  4  5  1  0  0  0
  4 24  1  0  0  0
 24 25  2  0  0  0
 24 26  1  0  0  0
 26 28  1  0  0  0
 28 29  2  0  0  0
 29 30  1  0  0  0
 30 31  2  0  0  0
 31 32  1  0  0  0
 32 33  2  0  0  0
 33 34  1  0  0  0
 30 35  1  0  0  0
 35 36  1  0  0  0
 35 37  1  0  0  0
 35 38  1  0  0  0
  9 10  1  0  0  0
 10 11  1  0  0  0
 11 12  1  0  0  0
 12 13  1  0  0  0
 13 14  1  0  0  0
 14 15  1  0  0  0
 15 16  1  0  0  0
 16 17  1  0  0  0
 15 18  1  0  0  0
 18 19  1  0  0  0
 19 20  1  0  0  0
 20 21  1  0  0  0
 21 22  1  0  0  0
 22 23  2  0  0  0
 11  7  1  0  0  0
 17 12  1  0  0  0
 22 18  1  0  0  0
  5  1  1  0  0  0
 33 28  1  0  0  0
 26 27  1  0  0  0
M  END
> <minimizedAffinity>
-9.45395

> <CNNscore>
0.2658314705

> <CNNaffinity>
6.6223998070

> <CNN_VS>
1.7604422569

> <CNNaffinity_variance>
0.0334100723

$$$$
[H]c1c([H])c(C(F)(F)F)c([H])c(N([H])C(=O)[C@]2([H])C([H])([H])C([H])([H])[C@@]([H])(N3C([H])([H])[C@]([H])(C([H])([H])[H])[C@@]([H])(N4C([H])([H])C([H])([H])C([H])(N5C(=O)OC([H])([H])C5([H])[H])C([H])([H])C4([H])[H])C3([H])[H])C2([H])[H])c1Cl


 38 42  0  0  0  0  0  0  0  0999 V2000
   35.5525  -17.0481   36.5290 C   0  0  0  0  0  0  0  0  0  0  0  0
   36.9076  -17.6334   36.3866 C   0  0  0  0  0  0  0  0  0  0  0  0
   36.6614  -19.1091   36.7537 C   0  0  0  0  0  0  0  0  0  0  0  0
   35.3752  -19.3519   35.9581 C   0  0  0  0  0  0  0  0  0  0  0  0
   34.6066  -18.0981   36.0156 C   0  0  0  0  0  0  0  0  0  0  0  0
   37.4793  -13.6714   37.6718 C   0  0  0  0  0  0  0  0  0  0  0  0
   36.2816  -13.6936   36.7769 C   0  0  0  0  0  0  0  0  0  0  0  0
   36.4677  -14.8951   35.8187 C   0  0  0  0  0  0  0  0  0  0  0  0
   35.3724  -15.7456   36.0383 N   0  0  0  0  0  0  0  0  0  0  0  0
   34.2856  -14.9742   36.5933 C   0  0  0  0  0  0  0  0  0  0  0  0
   34.9791  -13.9987   37.4436 C   0  0  0  0  0  0  0  0  0  0  0  0
   34.2489  -12.9031   37.9692 N   0  0  0  0  0  0  0  0  0  0  0  0
   34.1929  -11.7603   37.1232 C   0  0  0  0  0  0  0  0  0  0  0  0
   33.2260  -10.7741   37.7841 C   0  0  0  0  0  0  0  0  0  0  0  0
   31.8407  -11.3520   37.4230 C   0  0  0  0  0  0  0  0  0  0  0  0
   31.7747  -12.6961   38.0281 C   0  0  0  0  0  0  0  0  0  0  0  0
   33.0565  -13.1859   38.6754 C   0  0  0  0  0  0  0  0  0  0  0  0
   30.7961  -10.4383   37.6986 N   0  0  0  0  0  0  0  0  0  0  0  0
   29.3715  -10.7396   37.8995 C   0  0  0  0  0  0  0  0  0  0  0  0
   29.0024   -9.6874   38.9213 C   0  0  0  0  0  0  0  0  0  0  0  0
   29.6999   -8.5450   38.4132 O   0  0  0  0  0  0  0  0  0  0  0  0
   30.8806   -9.0235   37.8221 C   0  0  0  0  0  0  0  0  0  0  0  0
   31.8963   -8.3864   37.4332 O   0  0  0  0  0  0  0  0  0  0  0  0
   34.7192  -20.5488   36.5279 C   0  0  0  0  0  0  0  0  0  0  0  0
   33.5093  -20.4815   36.7967 O   0  0  0  0  0  0  0  0  0  0  0  0
   35.4575  -21.7201   36.7553 N   0  0  0  0  0  0  0  0  0  0  0  0
   36.4825  -21.6940   36.4773 H   0  0  0  0  0  0  0  0  0  0  0  0
   34.9776  -22.9301   37.3150 C   0  0  0  0  0  0  0  0  0  0  0  0
   33.9710  -23.6938   36.8019 C   0  0  0  0  0  0  0  0  0  0  0  0
   33.5009  -24.8642   37.3926 C   0  0  0  0  0  0  0  0  0  0  0  0
   34.0999  -25.2580   38.5649 C   0  0  0  0  0  0  0  0  0  0  0  0
   35.1051  -24.5149   39.0975 C   0  0  0  0  0  0  0  0  0  0  0  0
   35.5671  -23.3653   38.5169 C   0  0  0  0  0  0  0  0  0  0  0  0
   36.8759  -22.4617   39.2473 Cl  0  0  0  0  0  0  0  0  0  0  0  0
   32.4049  -25.6199   36.7579 C   0  0  0  0  0  0  0  0  0  0  0  0
   31.6681  -26.3234   37.6969 F   0  0  0  0  0  0  0  0  0  0  0  0
   31.5455  -24.8090   36.0775 F   0  0  0  0  0  0  0  0  0  0  0  0
   32.9221  -26.5666   35.8832 F   0  0  0  0  0  0  0  0  0  0  0  0
  6  7  1  0  0  0
  7  8  1  0  0  0
  8  9  1  0  0  0
  9  1  1  0  0  0
  1  2  1  0  0  0
  2  3  1  0  0  0
  3  4  1  0  0  0
  4  5  1  0  0  0
  4 24  1  0  0  0
 24 25  2  0  0  0
 24 26  1  0  0  0
 26 28  1  0  0  0
 28 29  2  0  0  0
 29 30  1  0  0  0
 30 31  2  0  0  0
 31 32  1  0  0  0
 32 33  2  0  0  0
 33 34  1  0  0  0
 30 35  1  0  0  0
 35 36  1  0  0  0
 35 37  1  0  0  0
 35 38  1  0  0  0
  9 10  1  0  0  0
 10 11  1  0  0  0
 11 12  1  0  0  0
 12 13  1  0  0  0
 13 14  1  0  0  0
 14 15  1  0  0  0
 15 16  1  0  0  0
 16 17  1  0  0  0
 15 18  1  0  0  0
 18 19  1  0  0  0
 19 20  1  0  0  0
 20 21  1  0  0  0
 21 22  1  0  0  0
 22 23  2  0  0  0
 11  7  1  0  0  0
 17 12  1  0  0  0
 22 18  1  0  0  0
  5  1  1  0  0  0
 33 28  1  0  0  0
 26 27  1  0  0  0
M  END
> <minimizedAffinity>
-7.93175

> <CNNscore>
0.2653502822

> <CNNaffinity>
6.3545150757

> <CNN_VS>
1.6861723661

> <CNNaffinity_variance>
0.0059209405

$$$$
[H]c1c([H])c(C(F)(F)F)c([H])c(N([H])C(=O)[C@]2([H])C([H])([H])C([H])([H])[C@@]([H])(N3C([H])([H])[C@]([H])(C([H])([H])[H])[C@@]([H])(N4C([H])([H])C([H])([H])C([H])(N5C(=O)OC([H])([H])C5([H])[H])C([H])([H])C4([H])[H])C3([H])[H])C2([H])[H])c1Cl


 38 42  0  0  0  0  0  0  0  0999 V2000
   33.9874  -18.7752   36.0997 C   0  0  0  0  0  0  0  0  0  0  0  0
   34.9281  -19.5545   36.9405 C   0  0  0  0  0  0  0  0  0  0  0  0
   34.1013  -20.8124   37.2680 C   0  0  0  0  0  0  0  0  0  0  0  0
   33.5243  -21.0994   35.8784 C   0  0  0  0  0  0  0  0  0  0  0  0
   33.2700  -19.7909   35.2543 C   0  0  0  0  0  0  0  0  0  0  0  0
   37.3550  -16.7039   36.9879 C   0  0  0  0  0  0  0  0  0  0  0  0
   36.3355  -16.2614   35.9876 C   0  0  0  0  0  0  0  0  0  0  0  0
   35.8953  -17.5284   35.2148 C   0  0  0  0  0  0  0  0  0  0  0  0
   34.5141  -17.6596   35.4306 N   0  0  0  0  0  0  0  0  0  0  0  0
   33.9692  -16.3667   35.7702 C   0  0  0  0  0  0  0  0  0  0  0  0
   35.0489  -15.7535   36.5538 C   0  0  0  0  0  0  0  0  0  0  0  0
   34.9771  -14.3709   36.8588 N   0  0  0  0  0  0  0  0  0  0  0  0
   34.6100  -13.5355   35.7669 C   0  0  0  0  0  0  0  0  0  0  0  0
   34.4175  -12.1282   36.3385 C   0  0  0  0  0  0  0  0  0  0  0  0
   33.0242  -12.2098   36.9985 C   0  0  0  0  0  0  0  0  0  0  0  0
   33.1175  -13.2377   38.0529 C   0  0  0  0  0  0  0  0  0  0  0  0
   34.4275  -14.0010   38.1085 C   0  0  0  0  0  0  0  0  0  0  0  0
   32.5263  -10.9320   37.3471 N   0  0  0  0  0  0  0  0  0  0  0  0
   33.2967   -9.7566   37.7776 C   0  0  0  0  0  0  0  0  0  0  0  0
   32.4678   -8.6419   37.1795 C   0  0  0  0  0  0  0  0  0  0  0  0
   31.1398   -9.0984   37.4579 O   0  0  0  0  0  0  0  0  0  0  0  0
   31.1710  -10.5004   37.3819 C   0  0  0  0  0  0  0  0  0  0  0  0
   30.2155  -11.3216   37.3457 O   0  0  0  0  0  0  0  0  0  0  0  0
   32.3487  -21.9787   36.0580 C   0  0  0  0  0  0  0  0  0  0  0  0
   32.2460  -22.9759   35.3262 O   0  0  0  0  0  0  0  0  0  0  0  0
   31.3831  -21.6798   37.0311 N   0  0  0  0  0  0  0  0  0  0  0  0
   31.5621  -20.8176   37.6252 H   0  0  0  0  0  0  0  0  0  0  0  0
   30.1982  -22.4080   37.3020 C   0  0  0  0  0  0  0  0  0  0  0  0
   30.1296  -23.5701   38.0125 C   0  0  0  0  0  0  0  0  0  0  0  0
   28.9520  -24.2792   38.2365 C   0  0  0  0  0  0  0  0  0  0  0  0
   27.7977  -23.7613   37.7003 C   0  0  0  0  0  0  0  0  0  0  0  0
   27.8385  -22.6048   36.9880 C   0  0  0  0  0  0  0  0  0  0  0  0
   28.9954  -21.9080   36.7684 C   0  0  0  0  0  0  0  0  0  0  0  0
   28.9772  -20.4160   35.8538 Cl  0  0  0  0  0  0  0  0  0  0  0  0
   28.9832  -25.5289   39.0191 C   0  0  0  0  0  0  0  0  0  0  0  0
   28.4941  -26.5963   38.2837 F   0  0  0  0  0  0  0  0  0  0  0  0
   30.2433  -25.8493   39.4297 F   0  0  0  0  0  0  0  0  0  0  0  0
   28.1598  -25.4157   40.1318 F   0  0  0  0  0  0  0  0  0  0  0  0
  6  7  1  0  0  0
  7  8  1  0  0  0
  8  9  1  0  0  0
  9  1  1  0  0  0
  1  2  1  0  0  0
  2  3  1  0  0  0
  3  4  1  0  0  0
  4  5  1  0  0  0
  4 24  1  0  0  0
 24 25  2  0  0  0
 24 26  1  0  0  0
 26 28  1  0  0  0
 28 29  2  0  0  0
 29 30  1  0  0  0
 30 31  2  0  0  0
 31 32  1  0  0  0
 32 33  2  0  0  0
 33 34  1  0  0  0
 30 35  1  0  0  0
 35 36  1  0  0  0
 35 37  1  0  0  0
 35 38  1  0  0  0
  9 10  1  0  0  0
 10 11  1  0  0  0
 11 12  1  0  0  0
 12 13  1  0  0  0
 13 14  1  0  0  0
 14 15  1  0  0  0
 15 16  1  0  0  0
 16 17  1  0  0  0
 15 18  1  0  0  0
 18 19  1  0  0  0
 19 20  1  0  0  0
 20 21  1  0  0  0
 21 22  1  0  0  0
 22 23  2  0  0  0
 11  7  1  0  0  0
 17 12  1  0  0  0
 22 18  1  0  0  0
  5  1  1  0  0  0
 33 28  1  0  0  0
 26 27  1  0  0  0
M  END
> <minimizedAffinity>
-6.72306

> <CNNscore>
0.2638727725

> <CNNaffinity>
6.0633020401

> <CNN_VS>
1.5999403000

> <CNNaffinity_variance>
0.0204614196

$$$$
[H]c1c([H])c(N([H])C2([H])C([H])([H])C([H])([H])N(C(=O)N3C([H])([H])C([H])([H])C([H])(C(F)(F)F)C([H])([H])C3([H])[H])C([H])([H])C2([H])[H])c([H])c2c1N([H])C(=O)C2([H])[H]


 31 34  0  0  0  0  0  0  0  0999 V2000
   30.7604  -22.9974   36.8389 C   0  0  0  0  0  0  0  0  0  0  0  0
   31.9185  -22.0709   36.7876 C   0  0  0  0  0  0  0  0  0  0  0  0
   32.8194  -22.0672   37.9681 C   0  0  0  0  0  0  0  0  0  0  0  0
   32.8442  -23.2145   38.8124 N   0  0  0  0  0  0  0  0  0  0  0  0
   31.6329  -24.0689   38.8030 C   0  0  0  0  0  0  0  0  0  0  0  0
   31.3057  -24.3422   37.3570 C   0  0  0  0  0  0  0  0  0  0  0  0
   33.8671  -23.6204   39.6875 C   0  0  0  0  0  0  0  0  0  0  0  0
   33.6425  -24.7481   40.2945 O   0  0  0  0  0  0  0  0  0  0  0  0
   35.0842  -23.0289   40.0255 N   0  0  0  0  0  0  0  0  0  0  0  0
   35.5253  -21.7685   39.5097 C   0  0  0  0  0  0  0  0  0  0  0  0
   36.6228  -21.2822   40.4571 C   0  0  0  0  0  0  0  0  0  0  0  0
   37.8588  -22.1430   40.3415 C   0  0  0  0  0  0  0  0  0  0  0  0
   37.4302  -23.5731   40.5191 C   0  0  0  0  0  0  0  0  0  0  0  0
   36.0176  -23.6927   40.9594 C   0  0  0  0  0  0  0  0  0  0  0  0
   29.7073  -24.4610   35.3496 F   0  0  0  0  0  0  0  0  0  0  0  0
   30.2043  -23.1808   35.4418 C   0  0  0  0  0  0  0  0  0  0  0  0
   29.2646  -22.2113   35.2228 F   0  0  0  0  0  0  0  0  0  0  0  0
   31.2483  -22.9839   34.5454 F   0  0  0  0  0  0  0  0  0  0  0  0
   38.8089  -21.7418   41.3286 N   0  0  0  0  0  0  0  0  0  0  0  0
   38.7149  -22.1004   42.3268 H   0  0  0  0  0  0  0  0  0  0  0  0
   39.9084  -20.8751   41.0890 C   0  0  0  0  0  0  0  0  0  0  0  0
   40.4631  -20.1251   42.1017 C   0  0  0  0  0  0  0  0  0  0  0  0
   41.5312  -19.2817   41.8497 C   0  0  0  0  0  0  0  0  0  0  0  0
   42.0886  -19.1494   40.5911 C   0  0  0  0  0  0  0  0  0  0  0  0
   43.1742  -18.3620   40.0815 N   0  0  0  0  0  0  0  0  0  0  0  0
   43.3227  -18.6144   38.6939 C   0  0  0  0  0  0  0  0  0  0  0  0
   44.1676  -18.1127   37.8918 O   0  0  0  0  0  0  0  0  0  0  0  0
   42.2835  -19.6006   38.3291 C   0  0  0  0  0  0  0  0  0  0  0  0
   41.5407  -19.8950   39.5746 C   0  0  0  0  0  0  0  0  0  0  0  0
   40.4761  -20.7319   39.8388 C   0  0  0  0  0  0  0  0  0  0  0  0
   43.7673  -17.7017   40.6448 H   0  0  0  0  0  0  0  0  0  0  0  0
 15 16  1  0  0  0
 16 17  1  0  0  0
 16 18  1  0  0  0
 16  1  1  0  0  0
  1  2  1  0  0  0
  2  3  1  0  0  0
  3  4  1  0  0  0
  4  5  1  0  0  0
  5  6  1  0  0  0
  4  7  1  0  0  0
  7  8  2  0  0  0
  7  9  1  0  0  0
  9 10  1  0  0  0
 10 11  1  0  0  0
 11 12  1  0  0  0
 12 13  1  0  0  0
 13 14  1  0  0  0
 12 19  1  0  0  0
 19 21  1  0  0  0
 21 22  2  0  0  0
 22 23  1  0  0  0
 23 24  2  0  0  0
 24 25  1  0  0  0
 25 26  1  0  0  0
 26 27  2  0  0  0
 26 28  1  0  0  0
 28 29  1  0  0  0
 29 30  2  0  0  0
  6  1  1  0  0  0
 14  9  1  0  0  0
 30 21  1  0  0  0
 29 24  1  0  0  0
 19 20  1  0  0  0
 25 31  1  0  0  0
M  END
> <minimizedAffinity>
-4.73564

> <CNNscore>
0.6844330430

> <CNNaffinity>
4.4697394371

> <CNN_VS>
3.0592374802

> <CNNaffinity_variance>
0.0871597528

$$$$
[H]c1c([H])c(N([H])C2([H])C([H])([H])C([H])([H])N(C(=O)N3C([H])([H])C([H])([H])C([H])(C(F)(F)F)C([H])([H])C3([H])[H])C([H])([H])C2([H])[H])c([H])c2c1N([H])C(=O)C2([H])[H]


 31 34  0  0  0  0  0  0  0  0999 V2000
   43.7865  -21.3750   39.7881 C   0  0  0  0  0  0  0  0  0  0  0  0
   42.3099  -21.4581   39.6656 C   0  0  0  0  0  0  0  0  0  0  0  0
   41.6737  -20.5561   38.6722 C   0  0  0  0  0  0  0  0  0  0  0  0
   42.4645  -20.0570   37.5974 N   0  0  0  0  0  0  0  0  0  0  0  0
   43.9284  -20.0005   37.8240 C   0  0  0  0  0  0  0  0  0  0  0  0
   44.3387  -21.3525   38.3497 C   0  0  0  0  0  0  0  0  0  0  0  0
   42.0234  -19.5733   36.3531 C   0  0  0  0  0  0  0  0  0  0  0  0
   42.9769  -19.2345   35.5366 O   0  0  0  0  0  0  0  0  0  0  0  0
   40.7421  -19.3884   35.8340 N   0  0  0  0  0  0  0  0  0  0  0  0
   39.5418  -19.6582   36.5659 C   0  0  0  0  0  0  0  0  0  0  0  0
   38.4258  -18.8993   35.8467 C   0  0  0  0  0  0  0  0  0  0  0  0
   38.1390  -19.5104   34.4953 C   0  0  0  0  0  0  0  0  0  0  0  0
   39.4452  -19.6041   33.7566 C   0  0  0  0  0  0  0  0  0  0  0  0
   40.5455  -18.8935   34.4554 C   0  0  0  0  0  0  0  0  0  0  0  0
   45.1430  -22.1870   41.5113 F   0  0  0  0  0  0  0  0  0  0  0  0
   44.2986  -22.6055   40.5081 C   0  0  0  0  0  0  0  0  0  0  0  0
   43.2221  -23.3181   40.9599 F   0  0  0  0  0  0  0  0  0  0  0  0
   44.9755  -23.3851   39.5773 F   0  0  0  0  0  0  0  0  0  0  0  0
   37.1883  -18.7016   33.8023 N   0  0  0  0  0  0  0  0  0  0  0  0
   37.4720  -18.2105   32.9011 H   0  0  0  0  0  0  0  0  0  0  0  0
   35.8492  -18.4857   34.2235 C   0  0  0  0  0  0  0  0  0  0  0  0
   35.5110  -17.4078   35.0106 C   0  0  0  0  0  0  0  0  0  0  0  0
   34.2018  -17.2150   35.4162 C   0  0  0  0  0  0  0  0  0  0  0  0
   33.1819  -18.0782   35.0596 C   0  0  0  0  0  0  0  0  0  0  0  0
   31.7758  -18.0991   35.3437 N   0  0  0  0  0  0  0  0  0  0  0  0
   31.1900  -19.2287   34.7178 C   0  0  0  0  0  0  0  0  0  0  0  0
   29.9746  -19.5917   34.7340 O   0  0  0  0  0  0  0  0  0  0  0  0
   32.2812  -19.9379   34.0164 C   0  0  0  0  0  0  0  0  0  0  0  0
   33.5113  -19.1568   34.2738 C   0  0  0  0  0  0  0  0  0  0  0  0
   34.8200  -19.3377   33.8761 C   0  0  0  0  0  0  0  0  0  0  0  0
   31.2589  -17.3907   35.9234 H   0  0  0  0  0  0  0  0  0  0  0  0
 15 16  1  0  0  0
 16 17  1  0  0  0
 16 18  1  0  0  0
 16  1  1  0  0  0
  1  2  1  0  0  0
  2  3  1  0  0  0
  3  4  1  0  0  0
  4  5  1  0  0  0
  5  6  1  0  0  0
  4  7  1  0  0  0
  7  8  2  0  0  0
  7  9  1  0  0  0
  9 10  1  0  0  0
 10 11  1  0  0  0
 11 12  1  0  0  0
 12 13  1  0  0  0
 13 14  1  0  0  0
 12 19  1  0  0  0
 19 21  1  0  0  0
 21 22  2  0  0  0
 22 23  1  0  0  0
 23 24  2  0  0  0
 24 25  1  0  0  0
 25 26  1  0  0  0
 26 27  2  0  0  0
 26 28  1  0  0  0
 28 29  1  0  0  0
 29 30  2  0  0  0
  6  1  1  0  0  0
 14  9  1  0  0  0
 30 21  1  0  0  0
 29 24  1  0  0  0
 19 20  1  0  0  0
 25 31  1  0  0  0
M  END
> <minimizedAffinity>
-6.25986

> <CNNscore>
0.6460877657

> <CNNaffinity>
5.0279626846

> <CNN_VS>
3.2485051155

> <CNNaffinity_variance>
0.2711307406

$$$$
[H]c1c([H])c(N([H])C2([H])C([H])([H])C([H])([H])N(C(=O)N3C([H])([H])C([H])([H])C([H])(C(F)(F)F)C([H])([H])C3([H])[H])C([H])([H])C2([H])[H])c([H])c2c1N([H])C(=O)C2([H])[H]


 31 34  0  0  0  0  0  0  0  0999 V2000
   31.9472  -19.0320   35.4183 C   0  0  0  0  0  0  0  0  0  0  0  0
   32.7962  -18.6697   34.2565 C   0  0  0  0  0  0  0  0  0  0  0  0
   34.2600  -18.6039   34.4979 C   0  0  0  0  0  0  0  0  0  0  0  0
   34.8044  -19.3281   35.5973 N   0  0  0  0  0  0  0  0  0  0  0  0
   33.8783  -19.6285   36.7151 C   0  0  0  0  0  0  0  0  0  0  0  0
   32.6381  -20.2275   36.1022 C   0  0  0  0  0  0  0  0  0  0  0  0
   36.1295  -19.7646   35.7723 C   0  0  0  0  0  0  0  0  0  0  0  0
   36.3309  -20.4592   36.8529 O   0  0  0  0  0  0  0  0  0  0  0  0
   37.2729  -19.5852   34.9941 N   0  0  0  0  0  0  0  0  0  0  0  0
   37.2975  -18.8244   33.7817 C   0  0  0  0  0  0  0  0  0  0  0  0
   38.7664  -18.4894   33.5199 C   0  0  0  0  0  0  0  0  0  0  0  0
   39.5478  -19.7293   33.1536 C   0  0  0  0  0  0  0  0  0  0  0  0
   39.2933  -20.7547   34.2232 C   0  0  0  0  0  0  0  0  0  0  0  0
   38.5616  -20.1932   35.3864 C   0  0  0  0  0  0  0  0  0  0  0  0
   30.5712  -19.3436   33.5532 F   0  0  0  0  0  0  0  0  0  0  0  0
   30.5779  -19.4525   34.9253 C   0  0  0  0  0  0  0  0  0  0  0  0
   30.3297  -20.7201   35.3753 F   0  0  0  0  0  0  0  0  0  0  0  0
   29.6443  -18.5975   35.4994 F   0  0  0  0  0  0  0  0  0  0  0  0
   40.9329  -19.4008   33.0449 N   0  0  0  0  0  0  0  0  0  0  0  0
   41.3910  -19.3608   32.0845 H   0  0  0  0  0  0  0  0  0  0  0  0
   41.7853  -19.1123   34.1438 C   0  0  0  0  0  0  0  0  0  0  0  0
   42.1821  -17.8238   34.4234 C   0  0  0  0  0  0  0  0  0  0  0  0
   43.0170  -17.5609   35.4955 C   0  0  0  0  0  0  0  0  0  0  0  0
   43.4889  -18.5592   36.3281 C   0  0  0  0  0  0  0  0  0  0  0  0
   44.3452  -18.5475   37.4791 N   0  0  0  0  0  0  0  0  0  0  0  0
   44.5043  -19.8735   37.9559 C   0  0  0  0  0  0  0  0  0  0  0  0
   45.1832  -20.2731   38.9501 O   0  0  0  0  0  0  0  0  0  0  0  0
   43.7122  -20.7435   37.0606 C   0  0  0  0  0  0  0  0  0  0  0  0
   43.0972  -19.8483   36.0558 C   0  0  0  0  0  0  0  0  0  0  0  0
   42.2646  -20.0971   34.9841 C   0  0  0  0  0  0  0  0  0  0  0  0
   44.7862  -17.6931   37.9040 H   0  0  0  0  0  0  0  0  0  0  0  0
 15 16  1  0  0  0
 16 17  1  0  0  0
 16 18  1  0  0  0
 16  1  1  0  0  0
  1  2  1  0  0  0
  2  3  1  0  0  0
  3  4  1  0  0  0
  4  5  1  0  0  0
  5  6  1  0  0  0
  4  7  1  0  0  0
  7  8  2  0  0  0
  7  9  1  0  0  0
  9 10  1  0  0  0
 10 11  1  0  0  0
 11 12  1  0  0  0
 12 13  1  0  0  0
 13 14  1  0  0  0
 12 19  1  0  0  0
 19 21  1  0  0  0
 21 22  2  0  0  0
 22 23  1  0  0  0
 23 24  2  0  0  0
 24 25  1  0  0  0
 25 26  1  0  0  0
 26 27  2  0  0  0
 26 28  1  0  0  0
 28 29  1  0  0  0
 29 30  2  0  0  0
  6  1  1  0  0  0
 14  9  1  0  0  0
 30 21  1  0  0  0
 29 24  1  0  0  0
 19 20  1  0  0  0
 25 31  1  0  0  0
M  END
> <minimizedAffinity>
-6.90854

> <CNNscore>
0.5089170933

> <CNNaffinity>
5.2157440186

> <CNN_VS>
2.6543812752

> <CNNaffinity_variance>
0.1667340696

$$$$
[H]c1c([H])c(N([H])C2([H])C([H])([H])C([H])([H])N(C(=O)N3C([H])([H])C([H])([H])C([H])(C(F)(F)F)C([H])([H])C3([H])[H])C([H])([H])C2([H])[H])c([H])c2c1N([H])C(=O)C2([H])[H]


 31 34  0  0  0  0  0  0  0  0999 V2000
   42.2215  -19.2811   37.6073 C   0  0  0  0  0  0  0  0  0  0  0  0
   41.5211  -18.4760   36.5761 C   0  0  0  0  0  0  0  0  0  0  0  0
   40.1875  -18.9653   36.1434 C   0  0  0  0  0  0  0  0  0  0  0  0
   39.4561  -19.8193   37.0184 N   0  0  0  0  0  0  0  0  0  0  0  0
   40.2491  -20.5925   38.0037 C   0  0  0  0  0  0  0  0  0  0  0  0
   41.1705  -19.6123   38.6842 C   0  0  0  0  0  0  0  0  0  0  0  0
   38.0693  -20.0499   37.0398 C   0  0  0  0  0  0  0  0  0  0  0  0
   37.6678  -20.8396   37.9916 O   0  0  0  0  0  0  0  0  0  0  0  0
   37.0414  -19.5843   36.2200 N   0  0  0  0  0  0  0  0  0  0  0  0
   37.2515  -18.7336   35.0881 C   0  0  0  0  0  0  0  0  0  0  0  0
   35.9930  -18.8528   34.2275 C   0  0  0  0  0  0  0  0  0  0  0  0
   34.8068  -18.2144   34.9112 C   0  0  0  0  0  0  0  0  0  0  0  0
   34.7114  -18.8033   36.2913 C   0  0  0  0  0  0  0  0  0  0  0  0
   35.6342  -19.9499   36.4850 C   0  0  0  0  0  0  0  0  0  0  0  0
   43.5491  -17.3668   37.4025 F   0  0  0  0  0  0  0  0  0  0  0  0
   43.3313  -18.4521   38.2205 C   0  0  0  0  0  0  0  0  0  0  0  0
   42.9615  -18.1135   39.4931 F   0  0  0  0  0  0  0  0  0  0  0  0
   44.4626  -19.2562   38.2965 F   0  0  0  0  0  0  0  0  0  0  0  0
   33.6292  -18.4587   34.1418 N   0  0  0  0  0  0  0  0  0  0  0  0
   33.4772  -17.9311   33.2295 H   0  0  0  0  0  0  0  0  0  0  0  0
   32.6051  -19.3761   34.4982 C   0  0  0  0  0  0  0  0  0  0  0  0
   31.4278  -18.9485   35.0700 C   0  0  0  0  0  0  0  0  0  0  0  0
   30.4421  -19.8566   35.4157 C   0  0  0  0  0  0  0  0  0  0  0  0
   30.5838  -21.2167   35.2092 C   0  0  0  0  0  0  0  0  0  0  0  0
   29.7296  -22.3388   35.4731 N   0  0  0  0  0  0  0  0  0  0  0  0
   30.3798  -23.5283   35.0567 C   0  0  0  0  0  0  0  0  0  0  0  0
   29.9512  -24.7204   35.1225 O   0  0  0  0  0  0  0  0  0  0  0  0
   31.6935  -23.1245   34.5118 C   0  0  0  0  0  0  0  0  0  0  0  0
   31.7562  -21.6517   34.6386 C   0  0  0  0  0  0  0  0  0  0  0  0
   32.7309  -20.7363   34.2987 C   0  0  0  0  0  0  0  0  0  0  0  0
   28.7731  -22.2901   35.9064 H   0  0  0  0  0  0  0  0  0  0  0  0
 15 16  1  0  0  0
 16 17  1  0  0  0
 16 18  1  0  0  0
 16  1  1  0  0  0
  1  2  1  0  0  0
  2  3  1  0  0  0
  3  4  1  0  0  0
  4  5  1  0  0  0
  5  6  1  0  0  0
  4  7  1  0  0  0
  7  8  2  0  0  0
  7  9  1  0  0  0
  9 10  1  0  0  0
 10 11  1  0  0  0
 11 12  1  0  0  0
 12 13  1  0  0  0
 13 14  1  0  0  0
 12 19  1  0  0  0
 19 21  1  0  0  0
 21 22  2  0  0  0
 22 23  1  0  0  0
 23 24  2  0  0  0
 24 25  1  0  0  0
 25 26  1  0  0  0
 26 27  2  0  0  0
 26 28  1  0  0  0
 28 29  1  0  0  0
 29 30  2  0  0  0
  6  1  1  0  0  0
 14  9  1  0  0  0
 30 21  1  0  0  0
 29 24  1  0  0  0
 19 20  1  0  0  0
 25 31  1  0  0  0
M  END
> <minimizedAffinity>
-6.73931

> <CNNscore>
0.4928616881

> <CNNaffinity>
4.9014749527

> <CNN_VS>
2.4157493114

> <CNNaffinity_variance>
0.4268532395

$$$$
[H]c1c([H])c(N([H])C2([H])C([H])([H])C([H])([H])N(C(=O)N3C([H])([H])C([H])([H])C([H])(C(F)(F)F)C([H])([H])C3([H])[H])C([H])([H])C2([H])[H])c([H])c2c1N([H])C(=O)C2([H])[H]


 31 34  0  0  0  0  0  0  0  0999 V2000
   41.6787  -19.1131   35.4443 C   0  0  0  0  0  0  0  0  0  0  0  0
   40.7539  -18.7017   34.3591 C   0  0  0  0  0  0  0  0  0  0  0  0
   39.3278  -19.0823   34.5214 C   0  0  0  0  0  0  0  0  0  0  0  0
   38.8365  -19.3489   35.8318 N   0  0  0  0  0  0  0  0  0  0  0  0
   39.8382  -19.7674   36.8413 C   0  0  0  0  0  0  0  0  0  0  0  0
   40.9689  -18.7729   36.7689 C   0  0  0  0  0  0  0  0  0  0  0  0
   37.5052  -19.3000   36.2813 C   0  0  0  0  0  0  0  0  0  0  0  0
   37.3549  -19.5357   37.5511 O   0  0  0  0  0  0  0  0  0  0  0  0
   36.3104  -19.0451   35.6082 N   0  0  0  0  0  0  0  0  0  0  0  0
   36.2289  -18.7962   34.2009 C   0  0  0  0  0  0  0  0  0  0  0  0
   34.7704  -19.0387   33.8102 C   0  0  0  0  0  0  0  0  0  0  0  0
   33.8697  -17.9744   34.3918 C   0  0  0  0  0  0  0  0  0  0  0  0
   34.1470  -17.9066   35.8679 C   0  0  0  0  0  0  0  0  0  0  0  0
   35.0229  -19.0112   36.3330 C   0  0  0  0  0  0  0  0  0  0  0  0
   43.2548  -18.1630   34.0013 F   0  0  0  0  0  0  0  0  0  0  0  0
   42.9617  -18.3148   35.3375 C   0  0  0  0  0  0  0  0  0  0  0  0
   42.7867  -17.1299   35.9980 F   0  0  0  0  0  0  0  0  0  0  0  0
   43.9579  -19.0322   35.9896 F   0  0  0  0  0  0  0  0  0  0  0  0
   32.5082  -18.3047   34.1169 N   0  0  0  0  0  0  0  0  0  0  0  0
   31.8970  -17.6166   33.5814 H   0  0  0  0  0  0  0  0  0  0  0  0
   31.8734  -19.5134   34.5086 C   0  0  0  0  0  0  0  0  0  0  0  0
   32.4364  -20.7396   34.2342 C   0  0  0  0  0  0  0  0  0  0  0  0
   31.8018  -21.9079   34.6189 C   0  0  0  0  0  0  0  0  0  0  0  0
   30.5910  -21.9069   35.2870 C   0  0  0  0  0  0  0  0  0  0  0  0
   29.7484  -22.9566   35.7834 N   0  0  0  0  0  0  0  0  0  0  0  0
   28.6048  -22.3860   36.3979 C   0  0  0  0  0  0  0  0  0  0  0  0
   27.6327  -22.9829   36.9526 O   0  0  0  0  0  0  0  0  0  0  0  0
   28.7459  -20.9193   36.2761 C   0  0  0  0  0  0  0  0  0  0  0  0
   30.0224  -20.6867   35.5649 C   0  0  0  0  0  0  0  0  0  0  0  0
   30.6651  -19.5294   35.1761 C   0  0  0  0  0  0  0  0  0  0  0  0
   29.9448  -23.9863   35.7053 H   0  0  0  0  0  0  0  0  0  0  0  0
 15 16  1  0  0  0
 16 17  1  0  0  0
 16 18  1  0  0  0
 16  1  1  0  0  0
  1  2  1  0  0  0
  2  3  1  0  0  0
  3  4  1  0  0  0
  4  5  1  0  0  0
  5  6  1  0  0  0
  4  7  1  0  0  0
  7  8  2  0  0  0
  7  9  1  0  0  0
  9 10  1  0  0  0
 10 11  1  0  0  0
 11 12  1  0  0  0
 12 13  1  0  0  0
 13 14  1  0  0  0
 12 19  1  0  0  0
 19 21  1  0  0  0
 21 22  2  0  0  0
 22 23  1  0  0  0
 23 24  2  0  0  0
 24 25  1  0  0  0
 25 26  1  0  0  0
 26 27  2  0  0  0
 26 28  1  0  0  0
 28 29  1  0  0  0
 29 30  2  0  0  0
  6  1  1  0  0  0
 14  9  1  0  0  0
 30 21  1  0  0  0
 29 24  1  0  0  0
 19 20  1  0  0  0
 25 31  1  0  0  0
M  END
> <minimizedAffinity>
-7.31671

> <CNNscore>
0.4852474928

> <CNNaffinity>
5.0509829521

> <CNN_VS>
2.4509768486

> <CNNaffinity_variance>
0.3978295922

$$$$
[H]c1c([H])c(N([H])C2([H])C([H])([H])C([H])([H])N(C(=O)N3C([H])([H])C([H])([H])C([H])(C(F)(F)F)C([H])([H])C3([H])[H])C([H])([H])C2([H])[H])c([H])c2c1N([H])C(=O)C2([H])[H]


 31 34  0  0  0  0  0  0  0  0999 V2000
   32.1944  -19.4391   35.6693 C   0  0  0  0  0  0  0  0  0  0  0  0
   33.3478  -18.9171   34.8951 C   0  0  0  0  0  0  0  0  0  0  0  0
   34.6863  -19.0537   35.5233 C   0  0  0  0  0  0  0  0  0  0  0  0
   34.8742  -20.0533   36.5209 N   0  0  0  0  0  0  0  0  0  0  0  0
   33.6615  -20.4978   37.2485 C   0  0  0  0  0  0  0  0  0  0  0  0
   32.6225  -20.8191   36.2046 C   0  0  0  0  0  0  0  0  0  0  0  0
   36.0804  -20.6487   36.9302 C   0  0  0  0  0  0  0  0  0  0  0  0
   35.9456  -21.5809   37.8265 O   0  0  0  0  0  0  0  0  0  0  0  0
   37.4019  -20.4183   36.5483 N   0  0  0  0  0  0  0  0  0  0  0  0
   37.7928  -19.4156   35.6044 C   0  0  0  0  0  0  0  0  0  0  0  0
   39.2873  -19.1807   35.8282 C   0  0  0  0  0  0  0  0  0  0  0  0
   40.0951  -20.3817   35.3957 C   0  0  0  0  0  0  0  0  0  0  0  0
   39.5142  -21.5866   36.0821 C   0  0  0  0  0  0  0  0  0  0  0  0
   38.5061  -21.2243   37.1099 C   0  0  0  0  0  0  0  0  0  0  0  0
   30.0848  -18.6284   35.0681 F   0  0  0  0  0  0  0  0  0  0  0  0
   31.0043  -19.6007   34.7461 C   0  0  0  0  0  0  0  0  0  0  0  0
   31.4493  -19.5276   33.4548 F   0  0  0  0  0  0  0  0  0  0  0  0
   30.4816  -20.8718   34.9539 F   0  0  0  0  0  0  0  0  0  0  0  0
   41.4659  -20.1784   35.7389 N   0  0  0  0  0  0  0  0  0  0  0  0
   42.2278  -20.4427   35.0435 H   0  0  0  0  0  0  0  0  0  0  0  0
   41.9204  -19.6355   36.9702 C   0  0  0  0  0  0  0  0  0  0  0  0
   42.8027  -18.5791   37.0048 C   0  0  0  0  0  0  0  0  0  0  0  0
   43.2393  -18.0652   38.2136 C   0  0  0  0  0  0  0  0  0  0  0  0
   42.8206  -18.5754   39.4288 C   0  0  0  0  0  0  0  0  0  0  0  0
   43.1185  -18.2282   40.7886 N   0  0  0  0  0  0  0  0  0  0  0  0
   42.4032  -19.0907   41.6579 C   0  0  0  0  0  0  0  0  0  0  0  0
   42.4020  -19.1005   42.9263 O   0  0  0  0  0  0  0  0  0  0  0  0
   41.6294  -20.0118   40.7984 C   0  0  0  0  0  0  0  0  0  0  0  0
   41.9395  -19.6301   39.4029 C   0  0  0  0  0  0  0  0  0  0  0  0
   41.5120  -20.1332   38.1914 C   0  0  0  0  0  0  0  0  0  0  0  0
   43.7641  -17.4574   41.0951 H   0  0  0  0  0  0  0  0  0  0  0  0
 15 16  1  0  0  0
 16 17  1  0  0  0
 16 18  1  0  0  0
 16  1  1  0  0  0
  1  2  1  0  0  0
  2  3  1  0  0  0
  3  4  1  0  0  0
  4  5  1  0  0  0
  5  6  1  0  0  0
  4  7  1  0  0  0
  7  8  2  0  0  0
  7  9  1  0  0  0
  9 10  1  0  0  0
 10 11  1  0  0  0
 11 12  1  0  0  0
 12 13  1  0  0  0
 13 14  1  0  0  0
 12 19  1  0  0  0
 19 21  1  0  0  0
 21 22  2  0  0  0
 22 23  1  0  0  0
 23 24  2  0  0  0
 24 25  1  0  0  0
 25 26  1  0  0  0
 26 27  2  0  0  0
 26 28  1  0  0  0
 28 29  1  0  0  0
 29 30  2  0  0  0
  6  1  1  0  0  0
 14  9  1  0  0  0
 30 21  1  0  0  0
 29 24  1  0  0  0
 19 20  1  0  0  0
 25 31  1  0  0  0
M  END
> <minimizedAffinity>
-6.73744

> <CNNscore>
0.4758104086

> <CNNaffinity>
4.8396964073

> <CNN_VS>
2.3027780056

> <CNNaffinity_variance>
0.3063464761

$$$$
[H]c1c([H])c(N([H])C2([H])C([H])([H])C([H])([H])N(C(=O)N3C([H])([H])C([H])([H])C([H])(C(F)(F)F)C([H])([H])C3([H])[H])C([H])([H])C2([H])[H])c([H])c2c1N([H])C(=O)C2([H])[H]


 31 34  0  0  0  0  0  0  0  0999 V2000
   31.8541  -22.7635   36.2961 C   0  0  0  0  0  0  0  0  0  0  0  0
   32.7787  -21.6051   36.2216 C   0  0  0  0  0  0  0  0  0  0  0  0
   34.0372  -21.7079   37.0030 C   0  0  0  0  0  0  0  0  0  0  0  0
   34.5208  -23.0017   37.3524 N   0  0  0  0  0  0  0  0  0  0  0  0
   33.5155  -24.0893   37.4137 C   0  0  0  0  0  0  0  0  0  0  0  0
   32.7259  -24.0233   36.1312 C   0  0  0  0  0  0  0  0  0  0  0  0
   35.8362  -23.3709   37.6847 C   0  0  0  0  0  0  0  0  0  0  0  0
   36.0011  -24.6418   37.9045 O   0  0  0  0  0  0  0  0  0  0  0  0
   37.0015  -22.6171   37.8237 N   0  0  0  0  0  0  0  0  0  0  0  0
   37.0514  -21.1953   37.6657 C   0  0  0  0  0  0  0  0  0  0  0  0
   38.3418  -20.7371   38.3467 C   0  0  0  0  0  0  0  0  0  0  0  0
   39.5553  -21.2029   37.5770 C   0  0  0  0  0  0  0  0  0  0  0  0
   39.4171  -22.6859   37.3720 C   0  0  0  0  0  0  0  0  0  0  0  0
   38.2904  -23.2642   38.1465 C   0  0  0  0  0  0  0  0  0  0  0  0
   30.2939  -21.4285   35.1771 F   0  0  0  0  0  0  0  0  0  0  0  0
   30.8591  -22.6833   35.1567 C   0  0  0  0  0  0  0  0  0  0  0  0
   31.5160  -22.9693   33.9916 F   0  0  0  0  0  0  0  0  0  0  0  0
   29.9000  -23.6672   35.3671 F   0  0  0  0  0  0  0  0  0  0  0  0
   40.7357  -20.8708   38.3083 N   0  0  0  0  0  0  0  0  0  0  0  0
   41.0131  -21.4549   39.1543 H   0  0  0  0  0  0  0  0  0  0  0  0
   41.6043  -19.7912   37.9966 C   0  0  0  0  0  0  0  0  0  0  0  0
   42.5020  -19.3045   38.9202 C   0  0  0  0  0  0  0  0  0  0  0  0
   43.3379  -18.2485   38.6014 C   0  0  0  0  0  0  0  0  0  0  0  0
   43.3172  -17.6366   37.3614 C   0  0  0  0  0  0  0  0  0  0  0  0
   44.0640  -16.5501   36.7958 N   0  0  0  0  0  0  0  0  0  0  0  0
   43.6319  -16.3307   35.4630 C   0  0  0  0  0  0  0  0  0  0  0  0
   44.0487  -15.4637   34.6363 O   0  0  0  0  0  0  0  0  0  0  0  0
   42.5713  -17.3246   35.1925 C   0  0  0  0  0  0  0  0  0  0  0  0
   42.4239  -18.1167   36.4335 C   0  0  0  0  0  0  0  0  0  0  0  0
   41.5961  -19.1699   36.7638 C   0  0  0  0  0  0  0  0  0  0  0  0
   44.8132  -16.0016   37.2886 H   0  0  0  0  0  0  0  0  0  0  0  0
 15 16  1  0  0  0
 16 17  1  0  0  0
 16 18  1  0  0  0
 16  1  1  0  0  0
  1  2  1  0  0  0
  2  3  1  0  0  0
  3  4  1  0  0  0
  4  5  1  0  0  0
  5  6  1  0  0  0
  4  7  1  0  0  0
  7  8  2  0  0  0
  7  9  1  0  0  0
  9 10  1  0  0  0
 10 11  1  0  0  0
 11 12  1  0  0  0
 12 13  1  0  0  0
 13 14  1  0  0  0
 12 19  1  0  0  0
 19 21  1  0  0  0
 21 22  2  0  0  0
 22 23  1  0  0  0
 23 24  2  0  0  0
 24 25  1  0  0  0
 25 26  1  0  0  0
 26 27  2  0  0  0
 26 28  1  0  0  0
 28 29  1  0  0  0
 29 30  2  0  0  0
  6  1  1  0  0  0
 14  9  1  0  0  0
 30 21  1  0  0  0
 29 24  1  0  0  0
 19 20  1  0  0  0
 25 31  1  0  0  0
M  END
> <minimizedAffinity>
-4.98622

> <CNNscore>
0.4580355883

> <CNNaffinity>
4.4812927246

> <CNN_VS>
2.0525915623

> <CNNaffinity_variance>
0.1074853539

$$$$
[H]c1c([H])c(N([H])C2([H])C([H])([H])C([H])([H])N(C(=O)N3C([H])([H])C([H])([H])C([H])(C(F)(F)F)C([H])([H])C3([H])[H])C([H])([H])C2([H])[H])c([H])c2c1N([H])C(=O)C2([H])[H]


 31 34  0  0  0  0  0  0  0  0999 V2000
   31.6518  -20.2317   36.0954 C   0  0  0  0  0  0  0  0  0  0  0  0
   32.8691  -19.4159   35.8617 C   0  0  0  0  0  0  0  0  0  0  0  0
   34.0996  -19.8382   36.5778 C   0  0  0  0  0  0  0  0  0  0  0  0
   34.2043  -21.1889   37.0185 N   0  0  0  0  0  0  0  0  0  0  0  0
   32.9300  -21.9141   37.2369 C   0  0  0  0  0  0  0  0  0  0  0  0
   32.0940  -21.7047   36.0000 C   0  0  0  0  0  0  0  0  0  0  0  0
   35.3733  -21.9139   37.3097 C   0  0  0  0  0  0  0  0  0  0  0  0
   35.1709  -23.1558   37.6373 O   0  0  0  0  0  0  0  0  0  0  0  0
   36.7170  -21.5401   37.3125 N   0  0  0  0  0  0  0  0  0  0  0  0
   37.1737  -20.2153   37.0202 C   0  0  0  0  0  0  0  0  0  0  0  0
   38.5928  -20.1212   37.5824 C   0  0  0  0  0  0  0  0  0  0  0  0
   39.5466  -20.9866   36.7928 C   0  0  0  0  0  0  0  0  0  0  0  0
   38.9583  -22.3689   36.7348 C   0  0  0  0  0  0  0  0  0  0  0  0
   37.7776  -22.5219   37.6216 C   0  0  0  0  0  0  0  0  0  0  0  0
   31.3120  -19.8318   33.8165 F   0  0  0  0  0  0  0  0  0  0  0  0
   30.6361  -19.9365   35.0109 C   0  0  0  0  0  0  0  0  0  0  0  0
   29.6946  -20.9287   35.0224 F   0  0  0  0  0  0  0  0  0  0  0  0
   30.0094  -18.7395   35.3376 F   0  0  0  0  0  0  0  0  0  0  0  0
   40.8277  -20.9754   37.4228 N   0  0  0  0  0  0  0  0  0  0  0  0
   41.6724  -21.3667   36.9059 H   0  0  0  0  0  0  0  0  0  0  0  0
   41.0850  -20.4706   38.7252 C   0  0  0  0  0  0  0  0  0  0  0  0
   41.9441  -19.4136   38.9268 C   0  0  0  0  0  0  0  0  0  0  0  0
   42.1874  -18.9373   40.2034 C   0  0  0  0  0  0  0  0  0  0  0  0
   41.5920  -19.4867   41.3241 C   0  0  0  0  0  0  0  0  0  0  0  0
   41.6764  -19.1821   42.7235 N   0  0  0  0  0  0  0  0  0  0  0  0
   40.8433  -20.0734   43.4463 C   0  0  0  0  0  0  0  0  0  0  0  0
   40.6487  -20.1234   44.6988 O   0  0  0  0  0  0  0  0  0  0  0  0
   40.2164  -20.9687   42.4507 C   0  0  0  0  0  0  0  0  0  0  0  0
   40.7329  -20.5423   41.1314 C   0  0  0  0  0  0  0  0  0  0  0  0
   40.4989  -21.0078   39.8538 C   0  0  0  0  0  0  0  0  0  0  0  0
   42.2621  -18.4197   43.1487 H   0  0  0  0  0  0  0  0  0  0  0  0
 15 16  1  0  0  0
 16 17  1  0  0  0
 16 18  1  0  0  0
 16  1  1  0  0  0
  1  2  1  0  0  0
  2  3  1  0  0  0
  3  4  1  0  0  0
  4  5  1  0  0  0
  5  6  1  0  0  0
  4  7  1  0  0  0
  7  8  2  0  0  0
  7  9  1  0  0  0
  9 10  1  0  0  0
 10 11  1  0  0  0
 11 12  1  0  0  0
 12 13  1  0  0  0
 13 14  1  0  0  0
 12 19  1  0  0  0
 19 21  1  0  0  0
 21 22  2  0  0  0
 22 23  1  0  0  0
 23 24  2  0  0  0
 24 25  1  0  0  0
 25 26  1  0  0  0
 26 27  2  0  0  0
 26 28  1  0  0  0
 28 29  1  0  0  0
 29 30  2  0  0  0
  6  1  1  0  0  0
 14  9  1  0  0  0
 30 21  1  0  0  0
 29 24  1  0  0  0
 19 20  1  0  0  0
 25 31  1  0  0  0
M  END
> <minimizedAffinity>
-5.71948

> <CNNscore>
0.4335506558

> <CNNaffinity>
4.5128951073

> <CNN_VS>
1.9565685987

> <CNNaffinity_variance>
0.2606545985

$$$$
[H]c1c([H])c(N([H])C2([H])C([H])([H])C([H])([H])N(C(=O)N3C([H])([H])C([H])([H])C([H])(C(F)(F)F)C([H])([H])C3([H])[H])C([H])([H])C2([H])[H])c([H])c2c1N([H])C(=O)C2([H])[H]


 31 34  0  0  0  0  0  0  0  0999 V2000
   42.2364  -23.3559   39.7123 C   0  0  0  0  0  0  0  0  0  0  0  0
   40.8992  -22.7163   39.7805 C   0  0  0  0  0  0  0  0  0  0  0  0
   40.6785  -21.5419   38.8989 C   0  0  0  0  0  0  0  0  0  0  0  0
   41.4968  -21.3924   37.7422 N   0  0  0  0  0  0  0  0  0  0  0  0
   42.8209  -22.0579   37.7782 C   0  0  0  0  0  0  0  0  0  0  0  0
   42.5799  -23.4804   38.2154 C   0  0  0  0  0  0  0  0  0  0  0  0
   41.2184  -20.6565   36.5770 C   0  0  0  0  0  0  0  0  0  0  0  0
   42.1274  -20.7460   35.6517 O   0  0  0  0  0  0  0  0  0  0  0  0
   40.1395  -19.8423   36.2328 N   0  0  0  0  0  0  0  0  0  0  0  0
   39.0403  -19.5680   37.1079 C   0  0  0  0  0  0  0  0  0  0  0  0
   38.3614  -18.3133   36.5569 C   0  0  0  0  0  0  0  0  0  0  0  0
   37.6784  -18.6008   35.2405 C   0  0  0  0  0  0  0  0  0  0  0  0
   38.6937  -19.2432   34.3368 C   0  0  0  0  0  0  0  0  0  0  0  0
   40.0654  -19.2019   34.9029 C   0  0  0  0  0  0  0  0  0  0  0  0
   42.3205  -25.6605   39.3238 F   0  0  0  0  0  0  0  0  0  0  0  0
   42.1627  -24.7365   40.3316 C   0  0  0  0  0  0  0  0  0  0  0  0
   43.1177  -24.8213   41.3071 F   0  0  0  0  0  0  0  0  0  0  0  0
   40.9156  -24.8605   40.9330 F   0  0  0  0  0  0  0  0  0  0  0  0
   37.1701  -17.3831   34.6953 N   0  0  0  0  0  0  0  0  0  0  0  0
   37.5953  -16.9875   33.8029 H   0  0  0  0  0  0  0  0  0  0  0  0
   36.1091  -16.6248   35.2580 C   0  0  0  0  0  0  0  0  0  0  0  0
   34.8108  -17.0827   35.2349 C   0  0  0  0  0  0  0  0  0  0  0  0
   33.7881  -16.3286   35.7836 C   0  0  0  0  0  0  0  0  0  0  0  0
   34.0107  -15.0979   36.3736 C   0  0  0  0  0  0  0  0  0  0  0  0
   33.1417  -14.1434   36.9998 N   0  0  0  0  0  0  0  0  0  0  0  0
   33.9073  -13.0341   37.4407 C   0  0  0  0  0  0  0  0  0  0  0  0
   33.5035  -11.9902   38.0375 O   0  0  0  0  0  0  0  0  0  0  0  0
   35.3111  -13.3143   37.0708 C   0  0  0  0  0  0  0  0  0  0  0  0
   35.3042  -14.6337   36.4010 C   0  0  0  0  0  0  0  0  0  0  0  0
   36.3147  -15.3949   35.8505 C   0  0  0  0  0  0  0  0  0  0  0  0
   32.1020  -14.2470   37.1150 H   0  0  0  0  0  0  0  0  0  0  0  0
 15 16  1  0  0  0
 16 17  1  0  0  0
 16 18  1  0  0  0
 16  1  1  0  0  0
  1  2  1  0  0  0
  2  3  1  0  0  0
  3  4  1  0  0  0
  4  5  1  0  0  0
  5  6  1  0  0  0
  4  7  1  0  0  0
  7  8  2  0  0  0
  7  9  1  0  0  0
  9 10  1  0  0  0
 10 11  1  0  0  0
 11 12  1  0  0  0
 12 13  1  0  0  0
 13 14  1  0  0  0
 12 19  1  0  0  0
 19 21  1  0  0  0
 21 22  2  0  0  0
 22 23  1  0  0  0
 23 24  2  0  0  0
 24 25  1  0  0  0
 25 26  1  0  0  0
 26 27  2  0  0  0
 26 28  1  0  0  0
 28 29  1  0  0  0
 29 30  2  0  0  0
  6  1  1  0  0  0
 14  9  1  0  0  0
 30 21  1  0  0  0
 29 24  1  0  0  0
 19 20  1  0  0  0
 25 31  1  0  0  0
M  END
> <minimizedAffinity>
-6.12222

> <CNNscore>
0.4091486335

> <CNNaffinity>
5.0646114349

> <CNN_VS>
2.0721788406

> <CNNaffinity_variance>
0.1388089955

$$$$
[H]c1c([H])c(C([H])([H])c2c([H])n([H])c3c([H])c([H])c(OC([H])([H])[H])c([H])c23)c([H])c([H])c1N([H])C([H])([H])C([H])([H])N1C([H])([H])C([H])([H])C([H])([H])C1([H])[H]


 28 31  0  0  0  0  0  0  0  0999 V2000
   33.1354  -18.7619   35.0152 C   0  0  0  0  0  0  0  0  0  0  0  0
   32.4888  -19.4960   34.0517 C   0  0  0  0  0  0  0  0  0  0  0  0
   32.3028  -20.8822   34.2018 C   0  0  0  0  0  0  0  0  0  0  0  0
   32.7494  -21.5640   35.2967 C   0  0  0  0  0  0  0  0  0  0  0  0
   33.4121  -20.7993   36.2817 C   0  0  0  0  0  0  0  0  0  0  0  0
   33.5849  -19.4481   36.1206 C   0  0  0  0  0  0  0  0  0  0  0  0
   32.6312  -22.9654   35.4927 N   0  0  0  0  0  0  0  0  0  0  0  0
   33.2712  -23.5818   34.8503 H   0  0  0  0  0  0  0  0  0  0  0  0
   31.8205  -23.6945   36.3819 C   0  0  0  0  0  0  0  0  0  0  0  0
   31.0252  -22.9193   37.3707 C   0  0  0  0  0  0  0  0  0  0  0  0
   29.5954  -23.2601   37.1883 N   0  0  0  0  0  0  0  0  0  0  0  0
   29.5837  -24.6302   36.6972 C   0  0  0  0  0  0  0  0  0  0  0  0
   28.3401  -24.7498   35.8435 C   0  0  0  0  0  0  0  0  0  0  0  0
   27.8128  -23.3414   35.7336 C   0  0  0  0  0  0  0  0  0  0  0  0
   29.0137  -22.5038   36.1077 C   0  0  0  0  0  0  0  0  0  0  0  0
   33.3461  -17.2990   34.8818 C   0  0  0  0  0  0  0  0  0  0  0  0
   34.7779  -13.9210   37.4947 C   0  0  0  0  0  0  0  0  0  0  0  0
   36.1409  -13.8814   37.6657 C   0  0  0  0  0  0  0  0  0  0  0  0
   36.9867  -14.7943   37.0882 C   0  0  0  0  0  0  0  0  0  0  0  0
   36.4269  -15.7857   36.3069 C   0  0  0  0  0  0  0  0  0  0  0  0
   36.9272  -16.8254   35.6011 N   0  0  0  0  0  0  0  0  0  0  0  0
   35.9248  -17.5050   35.0011 C   0  0  0  0  0  0  0  0  0  0  0  0
   34.7183  -16.9077   35.3107 C   0  0  0  0  0  0  0  0  0  0  0  0
   35.0419  -15.8424   36.1211 C   0  0  0  0  0  0  0  0  0  0  0  0
   34.2141  -14.9052   36.7183 C   0  0  0  0  0  0  0  0  0  0  0  0
   37.9408  -17.0541   35.5401 H   0  0  0  0  0  0  0  0  0  0  0  0
   32.8582  -12.4614   37.3446 C   0  0  0  0  0  0  0  0  0  0  0  0
   33.9168  -13.0019   38.0751 O   0  0  0  0  0  0  0  0  0  0  0  0
 27 28  1  0  0  0
 28 17  1  0  0  0
 17 18  2  0  0  0
 18 19  1  0  0  0
 19 20  2  0  0  0
 20 21  1  0  0  0
 21 22  1  0  0  0
 22 23  2  0  0  0
 23 16  1  0  0  0
 16  1  1  0  0  0
  1  2  2  0  0  0
  2  3  1  0  0  0
  3  4  2  0  0  0
  4  7  1  0  0  0
  7  9  1  0  0  0
  9 10  1  0  0  0
 10 11  1  0  0  0
 11 12  1  0  0  0
 12 13  1  0  0  0
 13 14  1  0  0  0
 14 15  1  0  0  0
  4  5  1  0  0  0
  5  6  2  0  0  0
 23 24  1  0  0  0
 24 25  2  0  0  0
 25 17  1  0  0  0
 24 20  1  0  0  0
  6  1  1  0  0  0
 15 11  1  0  0  0
 21 26  1  0  0  0
  7  8  1  0  0  0
M  END
> <minimizedAffinity>
-6.44812

> <CNNscore>
0.8163521886

> <CNNaffinity>
5.2445669174

> <CNN_VS>
4.2814135551

> <CNNaffinity_variance>
0.4444205165

$$$$
[H]c1c([H])c(C([H])([H])c2c([H])n([H])c3c([H])c([H])c(OC([H])([H])[H])c([H])c23)c([H])c([H])c1N([H])C([H])([H])C([H])([H])N1C([H])([H])C([H])([H])C([H])([H])C1([H])[H]


 28 31  0  0  0  0  0  0  0  0999 V2000
   36.5169  -19.0295   36.0637 C   0  0  0  0  0  0  0  0  0  0  0  0
   36.4905  -19.1812   34.6993 C   0  0  0  0  0  0  0  0  0  0  0  0
   37.6658  -19.0641   33.9355 C   0  0  0  0  0  0  0  0  0  0  0  0
   38.8793  -18.7959   34.5001 C   0  0  0  0  0  0  0  0  0  0  0  0
   38.8953  -18.6426   35.9038 C   0  0  0  0  0  0  0  0  0  0  0  0
   37.7404  -18.7605   36.6344 C   0  0  0  0  0  0  0  0  0  0  0  0
   40.0947  -18.6252   33.7859 N   0  0  0  0  0  0  0  0  0  0  0  0
   40.0718  -17.8579   33.0030 H   0  0  0  0  0  0  0  0  0  0  0  0
   41.3296  -19.2859   33.9206 C   0  0  0  0  0  0  0  0  0  0  0  0
   42.5319  -18.4423   34.1524 C   0  0  0  0  0  0  0  0  0  0  0  0
   42.4361  -17.8579   35.5100 N   0  0  0  0  0  0  0  0  0  0  0  0
   43.2219  -16.6338   35.4607 C   0  0  0  0  0  0  0  0  0  0  0  0
   43.7497  -16.4278   36.8637 C   0  0  0  0  0  0  0  0  0  0  0  0
   43.3883  -17.6933   37.5997 C   0  0  0  0  0  0  0  0  0  0  0  0
   43.1295  -18.6715   36.4772 C   0  0  0  0  0  0  0  0  0  0  0  0
   35.2921  -19.1468   36.8932 C   0  0  0  0  0  0  0  0  0  0  0  0
   31.3227  -21.1891   36.2922 C   0  0  0  0  0  0  0  0  0  0  0  0
   30.4380  -20.4806   35.5150 C   0  0  0  0  0  0  0  0  0  0  0  0
   30.7431  -19.2580   34.9723 C   0  0  0  0  0  0  0  0  0  0  0  0
   31.9949  -18.7346   35.2286 C   0  0  0  0  0  0  0  0  0  0  0  0
   32.6304  -17.5941   34.8755 N   0  0  0  0  0  0  0  0  0  0  0  0
   33.8737  -17.5718   35.4052 C   0  0  0  0  0  0  0  0  0  0  0  0
   34.0809  -18.7271   36.1338 C   0  0  0  0  0  0  0  0  0  0  0  0
   32.9089  -19.4407   36.0172 C   0  0  0  0  0  0  0  0  0  0  0  0
   32.5704  -20.6738   36.5512 C   0  0  0  0  0  0  0  0  0  0  0  0
   32.2077  -16.8516   34.2811 H   0  0  0  0  0  0  0  0  0  0  0  0
   29.7458  -22.9727   36.7051 C   0  0  0  0  0  0  0  0  0  0  0  0
   31.0215  -22.4251   36.8440 O   0  0  0  0  0  0  0  0  0  0  0  0
 27 28  1  0  0  0
 28 17  1  0  0  0
 17 18  2  0  0  0
 18 19  1  0  0  0
 19 20  2  0  0  0
 20 21  1  0  0  0
 21 22  1  0  0  0
 22 23  2  0  0  0
 23 16  1  0  0  0
 16  1  1  0  0  0
  1  2  2  0  0  0
  2  3  1  0  0  0
  3  4  2  0  0  0
  4  7  1  0  0  0
  7  9  1  0  0  0
  9 10  1  0  0  0
 10 11  1  0  0  0
 11 12  1  0  0  0
 12 13  1  0  0  0
 13 14  1  0  0  0
 14 15  1  0  0  0
  4  5  1  0  0  0
  5  6  2  0  0  0
 23 24  1  0  0  0
 24 25  2  0  0  0
 25 17  1  0  0  0
 24 20  1  0  0  0
  6  1  1  0  0  0
 15 11  1  0  0  0
 21 26  1  0  0  0
  7  8  1  0  0  0
M  END
> <minimizedAffinity>
-5.88863

> <CNNscore>
0.7796677947

> <CNNaffinity>
5.0642466545

> <CNN_VS>
3.9484300613

> <CNNaffinity_variance>
0.5354635119

$$$$
[H]c1c([H])c(C([H])([H])c2c([H])n([H])c3c([H])c([H])c(OC([H])([H])[H])c([H])c23)c([H])c([H])c1N([H])C([H])([H])C([H])([H])N1C([H])([H])C([H])([H])C([H])([H])C1([H])[H]


 28 31  0  0  0  0  0  0  0  0999 V2000
   37.2279  -18.9159   35.9580 C   0  0  0  0  0  0  0  0  0  0  0  0
   38.5786  -18.8406   36.1930 C   0  0  0  0  0  0  0  0  0  0  0  0
   39.5068  -19.1073   35.1704 C   0  0  0  0  0  0  0  0  0  0  0  0
   39.1217  -19.4520   33.9071 C   0  0  0  0  0  0  0  0  0  0  0  0
   37.7305  -19.5257   33.6761 C   0  0  0  0  0  0  0  0  0  0  0  0
   36.8382  -19.2620   34.6839 C   0  0  0  0  0  0  0  0  0  0  0  0
   40.0035  -19.7728   32.8413 N   0  0  0  0  0  0  0  0  0  0  0  0
   39.6829  -19.4284   31.8510 H   0  0  0  0  0  0  0  0  0  0  0  0
   41.2279  -20.4659   32.8508 C   0  0  0  0  0  0  0  0  0  0  0  0
   41.2528  -21.7962   33.5147 C   0  0  0  0  0  0  0  0  0  0  0  0
   42.2997  -22.6201   32.8676 N   0  0  0  0  0  0  0  0  0  0  0  0
   41.6139  -23.8113   32.3889 C   0  0  0  0  0  0  0  0  0  0  0  0
   42.6456  -24.9178   32.4156 C   0  0  0  0  0  0  0  0  0  0  0  0
   43.8354  -24.3166   33.1206 C   0  0  0  0  0  0  0  0  0  0  0  0
   43.2351  -23.1302   33.8387 C   0  0  0  0  0  0  0  0  0  0  0  0
   36.2271  -18.6408   37.0186 C   0  0  0  0  0  0  0  0  0  0  0  0
   36.2028  -14.1593   36.5660 C   0  0  0  0  0  0  0  0  0  0  0  0
   35.0224  -13.6498   36.0806 C   0  0  0  0  0  0  0  0  0  0  0  0
   33.9484  -14.4423   35.7632 C   0  0  0  0  0  0  0  0  0  0  0  0
   34.0779  -15.8048   35.9458 C   0  0  0  0  0  0  0  0  0  0  0  0
   33.2606  -16.8645   35.7493 N   0  0  0  0  0  0  0  0  0  0  0  0
   33.8918  -18.0085   36.0949 C   0  0  0  0  0  0  0  0  0  0  0  0
   35.1670  -17.7119   36.5356 C   0  0  0  0  0  0  0  0  0  0  0  0
   35.2713  -16.3422   36.4388 C   0  0  0  0  0  0  0  0  0  0  0  0
   36.3385  -15.5148   36.7500 C   0  0  0  0  0  0  0  0  0  0  0  0
   32.2888  -16.7908   35.3837 H   0  0  0  0  0  0  0  0  0  0  0  0
   38.0614  -13.6402   38.0201 C   0  0  0  0  0  0  0  0  0  0  0  0
   37.2925  -13.3648   36.8890 O   0  0  0  0  0  0  0  0  0  0  0  0
 27 28  1  0  0  0
 28 17  1  0  0  0
 17 18  2  0  0  0
 18 19  1  0  0  0
 19 20  2  0  0  0
 20 21  1  0  0  0
 21 22  1  0  0  0
 22 23  2  0  0  0
 23 16  1  0  0  0
 16  1  1  0  0  0
  1  2  2  0  0  0
  2  3  1  0  0  0
  3  4  2  0  0  0
  4  7  1  0  0  0
  7  9  1  0  0  0
  9 10  1  0  0  0
 10 11  1  0  0  0
 11 12  1  0  0  0
 12 13  1  0  0  0
 13 14  1  0  0  0
 14 15  1  0  0  0
  4  5  1  0  0  0
  5  6  2  0  0  0
 23 24  1  0  0  0
 24 25  2  0  0  0
 25 17  1  0  0  0
 24 20  1  0  0  0
  6  1  1  0  0  0
 15 11  1  0  0  0
 21 26  1  0  0  0
  7  8  1  0  0  0
M  END
> <minimizedAffinity>
-5.79606

> <CNNscore>
0.7298816442

> <CNNaffinity>
5.1992597580

> <CNN_VS>
3.7948441505

> <CNNaffinity_variance>
0.2227539271

$$$$
[H]c1c([H])c(C([H])([H])c2c([H])n([H])c3c([H])c([H])c(OC([H])([H])[H])c([H])c23)c([H])c([H])c1N([H])C([H])([H])C([H])([H])N1C([H])([H])C([H])([H])C([H])([H])C1([H])[H]


 28 31  0  0  0  0  0  0  0  0999 V2000
   34.2394  -19.7018   34.4852 C   0  0  0  0  0  0  0  0  0  0  0  0
   35.2142  -18.9010   33.9432 C   0  0  0  0  0  0  0  0  0  0  0  0
   36.3035  -18.4625   34.7176 C   0  0  0  0  0  0  0  0  0  0  0  0
   36.4486  -18.8028   36.0316 C   0  0  0  0  0  0  0  0  0  0  0  0
   35.4410  -19.6272   36.5786 C   0  0  0  0  0  0  0  0  0  0  0  0
   34.3854  -20.0469   35.8098 C   0  0  0  0  0  0  0  0  0  0  0  0
   37.4992  -18.3634   36.8798 N   0  0  0  0  0  0  0  0  0  0  0  0
   37.1769  -17.8624   37.8003 H   0  0  0  0  0  0  0  0  0  0  0  0
   38.8942  -18.4664   36.7284 C   0  0  0  0  0  0  0  0  0  0  0  0
   39.4235  -19.7177   36.1240 C   0  0  0  0  0  0  0  0  0  0  0  0
   39.7676  -19.4426   34.7100 N   0  0  0  0  0  0  0  0  0  0  0  0
   40.0351  -20.7443   34.1165 C   0  0  0  0  0  0  0  0  0  0  0  0
   41.0401  -20.4941   33.0134 C   0  0  0  0  0  0  0  0  0  0  0  0
   41.4478  -19.0525   33.1851 C   0  0  0  0  0  0  0  0  0  0  0  0
   41.0291  -18.7528   34.6059 C   0  0  0  0  0  0  0  0  0  0  0  0
   33.0794  -20.1777   33.6914 C   0  0  0  0  0  0  0  0  0  0  0  0
   30.1247  -22.9728   35.6267 C   0  0  0  0  0  0  0  0  0  0  0  0
   29.0375  -22.3436   36.1841 C   0  0  0  0  0  0  0  0  0  0  0  0
   28.8722  -20.9820   36.1509 C   0  0  0  0  0  0  0  0  0  0  0  0
   29.8485  -20.2303   35.5275 C   0  0  0  0  0  0  0  0  0  0  0  0
   30.0222  -18.9074   35.3059 N   0  0  0  0  0  0  0  0  0  0  0  0
   31.1752  -18.6964   34.6330 C   0  0  0  0  0  0  0  0  0  0  0  0
   31.7940  -19.9084   34.3952 C   0  0  0  0  0  0  0  0  0  0  0  0
   30.9622  -20.8526   34.9544 C   0  0  0  0  0  0  0  0  0  0  0  0
   31.1002  -22.2306   35.0048 C   0  0  0  0  0  0  0  0  0  0  0  0
   29.3540  -18.1721   35.6162 H   0  0  0  0  0  0  0  0  0  0  0  0
   31.1686  -24.9732   34.7625 C   0  0  0  0  0  0  0  0  0  0  0  0
   30.2986  -24.3483   35.6564 O   0  0  0  0  0  0  0  0  0  0  0  0
 27 28  1  0  0  0
 28 17  1  0  0  0
 17 18  2  0  0  0
 18 19  1  0  0  0
 19 20  2  0  0  0
 20 21  1  0  0  0
 21 22  1  0  0  0
 22 23  2  0  0  0
 23 16  1  0  0  0
 16  1  1  0  0  0
  1  2  2  0  0  0
  2  3  1  0  0  0
  3  4  2  0  0  0
  4  7  1  0  0  0
  7  9  1  0  0  0
  9 10  1  0  0  0
 10 11  1  0  0  0
 11 12  1  0  0  0
 12 13  1  0  0  0
 13 14  1  0  0  0
 14 15  1  0  0  0
  4  5  1  0  0  0
  5  6  2  0  0  0
 23 24  1  0  0  0
 24 25  2  0  0  0
 25 17  1  0  0  0
 24 20  1  0  0  0
  6  1  1  0  0  0
 15 11  1  0  0  0
 21 26  1  0  0  0
  7  8  1  0  0  0
M  END
> <minimizedAffinity>
-5.10318

> <CNNscore>
0.7134661078

> <CNNaffinity>
4.9692392349

> <CNN_VS>
3.5453836918

> <CNNaffinity_variance>
0.4260883927

$$$$
[H]c1c([H])c(C([H])([H])c2c([H])n([H])c3c([H])c([H])c(OC([H])([H])[H])c([H])c23)c([H])c([H])c1N([H])C([H])([H])C([H])([H])N1C([H])([H])C([H])([H])C([H])([H])C1([H])[H]


 28 31  0  0  0  0  0  0  0  0999 V2000
   34.6978  -19.0569   34.6244 C   0  0  0  0  0  0  0  0  0  0  0  0
   35.6677  -18.3254   33.9845 C   0  0  0  0  0  0  0  0  0  0  0  0
   36.5531  -17.5074   34.7093 C   0  0  0  0  0  0  0  0  0  0  0  0
   36.4969  -17.3964   36.0687 C   0  0  0  0  0  0  0  0  0  0  0  0
   35.4964  -18.1535   36.7167 C   0  0  0  0  0  0  0  0  0  0  0  0
   34.6411  -18.9470   35.9954 C   0  0  0  0  0  0  0  0  0  0  0  0
   37.3313  -16.5605   36.8569 N   0  0  0  0  0  0  0  0  0  0  0  0
   38.2912  -17.0024   37.1496 H   0  0  0  0  0  0  0  0  0  0  0  0
   37.1238  -15.2505   37.3264 C   0  0  0  0  0  0  0  0  0  0  0  0
   36.3493  -14.3286   36.4539 C   0  0  0  0  0  0  0  0  0  0  0  0
   35.2800  -13.7056   37.2676 N   0  0  0  0  0  0  0  0  0  0  0  0
   34.0383  -14.3004   36.7958 C   0  0  0  0  0  0  0  0  0  0  0  0
   32.9706  -13.2511   37.0159 C   0  0  0  0  0  0  0  0  0  0  0  0
   33.7278  -12.0125   37.4240 C   0  0  0  0  0  0  0  0  0  0  0  0
   35.1323  -12.3071   36.9505 C   0  0  0  0  0  0  0  0  0  0  0  0
   33.7502  -19.9267   33.8843 C   0  0  0  0  0  0  0  0  0  0  0  0
   30.7449  -22.9670   35.3032 C   0  0  0  0  0  0  0  0  0  0  0  0
   29.5444  -22.4282   35.6994 C   0  0  0  0  0  0  0  0  0  0  0  0
   29.2895  -21.0805   35.6637 C   0  0  0  0  0  0  0  0  0  0  0  0
   30.2923  -20.2479   35.2080 C   0  0  0  0  0  0  0  0  0  0  0  0
   30.4027  -18.9108   35.0369 N   0  0  0  0  0  0  0  0  0  0  0  0
   31.6257  -18.6040   34.5502 C   0  0  0  0  0  0  0  0  0  0  0  0
   32.3579  -19.7643   34.3892 C   0  0  0  0  0  0  0  0  0  0  0  0
   31.5208  -20.7776   34.8003 C   0  0  0  0  0  0  0  0  0  0  0  0
   31.7474  -22.1438   34.8486 C   0  0  0  0  0  0  0  0  0  0  0  0
   29.6450  -18.2310   35.2541 H   0  0  0  0  0  0  0  0  0  0  0  0
   32.1523  -24.8132   35.9733 C   0  0  0  0  0  0  0  0  0  0  0  0
   31.0098  -24.3277   35.3364 O   0  0  0  0  0  0  0  0  0  0  0  0
 27 28  1  0  0  0
 28 17  1  0  0  0
 17 18  2  0  0  0
 18 19  1  0  0  0
 19 20  2  0  0  0
 20 21  1  0  0  0
 21 22  1  0  0  0
 22 23  2  0  0  0
 23 16  1  0  0  0
 16  1  1  0  0  0
  1  2  2  0  0  0
  2  3  1  0  0  0
  3  4  2  0  0  0
  4  7  1  0  0  0
  7  9  1  0  0  0
  9 10  1  0  0  0
 10 11  1  0  0  0
 11 12  1  0  0  0
 12 13  1  0  0  0
 13 14  1  0  0  0
 14 15  1  0  0  0
  4  5  1  0  0  0
  5  6  2  0  0  0
 23 24  1  0  0  0
 24 25  2  0  0  0
 25 17  1  0  0  0
 24 20  1  0  0  0
  6  1  1  0  0  0
 15 11  1  0  0  0
 21 26  1  0  0  0
  7  8  1  0  0  0
M  END
> <minimizedAffinity>
-6.97138

> <CNNscore>
0.7052780390

> <CNNaffinity>
5.6241645813

> <CNN_VS>
3.9665997028

> <CNNaffinity_variance>
0.5891833305

$$$$
[H]c1c([H])c(C([H])([H])c2c([H])n([H])c3c([H])c([H])c(OC([H])([H])[H])c([H])c23)c([H])c([H])c1N([H])C([H])([H])C([H])([H])N1C([H])([H])C([H])([H])C([H])([H])C1([H])[H]


 28 31  0  0  0  0  0  0  0  0999 V2000
   35.2435  -14.2926   37.1014 C   0  0  0  0  0  0  0  0  0  0  0  0
   36.2425  -15.0935   37.5971 C   0  0  0  0  0  0  0  0  0  0  0  0
   36.4192  -16.4062   37.1237 C   0  0  0  0  0  0  0  0  0  0  0  0
   35.6182  -16.9486   36.1606 C   0  0  0  0  0  0  0  0  0  0  0  0
   34.5947  -16.1161   35.6572 C   0  0  0  0  0  0  0  0  0  0  0  0
   34.4360  -14.8379   36.1289 C   0  0  0  0  0  0  0  0  0  0  0  0
   35.7155  -18.2766   35.6674 N   0  0  0  0  0  0  0  0  0  0  0  0
   35.2881  -19.0484   36.3186 H   0  0  0  0  0  0  0  0  0  0  0  0
   36.2755  -18.7648   34.4726 C   0  0  0  0  0  0  0  0  0  0  0  0
   37.4527  -18.0394   33.9256 C   0  0  0  0  0  0  0  0  0  0  0  0
   38.6586  -18.8676   34.1564 N   0  0  0  0  0  0  0  0  0  0  0  0
   38.2576  -20.2310   33.8421 C   0  0  0  0  0  0  0  0  0  0  0  0
   39.1160  -21.1226   34.7127 C   0  0  0  0  0  0  0  0  0  0  0  0
   39.8316  -20.1764   35.6436 C   0  0  0  0  0  0  0  0  0  0  0  0
   38.9919  -18.9229   35.5578 C   0  0  0  0  0  0  0  0  0  0  0  0
   35.0341  -12.9048   37.5835 C   0  0  0  0  0  0  0  0  0  0  0  0
   32.7119   -9.0777   37.0845 C   0  0  0  0  0  0  0  0  0  0  0  0
   31.3687   -9.1965   37.3500 C   0  0  0  0  0  0  0  0  0  0  0  0
   30.7913  -10.3806   37.7331 C   0  0  0  0  0  0  0  0  0  0  0  0
   31.6092  -11.4867   37.8514 C   0  0  0  0  0  0  0  0  0  0  0  0
   31.4040  -12.7789   38.1944 N   0  0  0  0  0  0  0  0  0  0  0  0
   32.5694  -13.4619   38.1507 C   0  0  0  0  0  0  0  0  0  0  0  0
   33.5858  -12.6080   37.7684 C   0  0  0  0  0  0  0  0  0  0  0  0
   32.9786  -11.3856   37.5856 C   0  0  0  0  0  0  0  0  0  0  0  0
   33.5317  -10.1749   37.2002 C   0  0  0  0  0  0  0  0  0  0  0  0
   30.4757  -13.1730   38.4518 H   0  0  0  0  0  0  0  0  0  0  0  0
   34.4943   -7.8853   35.9711 C   0  0  0  0  0  0  0  0  0  0  0  0
   33.3026   -7.8845   36.6968 O   0  0  0  0  0  0  0  0  0  0  0  0
 27 28  1  0  0  0
 28 17  1  0  0  0
 17 18  2  0  0  0
 18 19  1  0  0  0
 19 20  2  0  0  0
 20 21  1  0  0  0
 21 22  1  0  0  0
 22 23  2  0  0  0
 23 16  1  0  0  0
 16  1  1  0  0  0
  1  2  2  0  0  0
  2  3  1  0  0  0
  3  4  2  0  0  0
  4  7  1  0  0  0
  7  9  1  0  0  0
  9 10  1  0  0  0
 10 11  1  0  0  0
 11 12  1  0  0  0
 12 13  1  0  0  0
 13 14  1  0  0  0
 14 15  1  0  0  0
  4  5  1  0  0  0
  5  6  2  0  0  0
 23 24  1  0  0  0
 24 25  2  0  0  0
 25 17  1  0  0  0
 24 20  1  0  0  0
  6  1  1  0  0  0
 15 11  1  0  0  0
 21 26  1  0  0  0
  7  8  1  0  0  0
M  END
> <minimizedAffinity>
-7.77795

> <CNNscore>
0.6910192370

> <CNNaffinity>
6.0769996643

> <CNN_VS>
4.1993236542

> <CNNaffinity_variance>
0.1644875407

$$$$
[H]c1c([H])c(C([H])([H])c2c([H])n([H])c3c([H])c([H])c(OC([H])([H])[H])c([H])c23)c([H])c([H])c1N([H])C([H])([H])C([H])([H])N1C([H])([H])C([H])([H])C([H])([H])C1([H])[H]


 28 31  0  0  0  0  0  0  0  0999 V2000
   34.9896  -14.3368   37.0483 C   0  0  0  0  0  0  0  0  0  0  0  0
   35.9985  -15.2206   37.3421 C   0  0  0  0  0  0  0  0  0  0  0  0
   36.0676  -16.4756   36.7107 C   0  0  0  0  0  0  0  0  0  0  0  0
   35.1484  -16.8785   35.7855 C   0  0  0  0  0  0  0  0  0  0  0  0
   34.1157  -15.9617   35.4902 C   0  0  0  0  0  0  0  0  0  0  0  0
   34.0628  -14.7414   36.1144 C   0  0  0  0  0  0  0  0  0  0  0  0
   35.1358  -18.1439   35.1414 N   0  0  0  0  0  0  0  0  0  0  0  0
   35.2467  -18.1133   34.0509 H   0  0  0  0  0  0  0  0  0  0  0  0
   35.0022  -19.4372   35.6790 C   0  0  0  0  0  0  0  0  0  0  0  0
   34.0666  -19.6066   36.8223 C   0  0  0  0  0  0  0  0  0  0  0  0
   32.7785  -20.1164   36.2984 N   0  0  0  0  0  0  0  0  0  0  0  0
   33.1321  -21.0177   35.2116 C   0  0  0  0  0  0  0  0  0  0  0  0
   31.9732  -20.9642   34.2402 C   0  0  0  0  0  0  0  0  0  0  0  0
   31.0962  -19.8484   34.7496 C   0  0  0  0  0  0  0  0  0  0  0  0
   32.0310  -19.0702   35.6464 C   0  0  0  0  0  0  0  0  0  0  0  0
   34.8922  -13.0073   37.7003 C   0  0  0  0  0  0  0  0  0  0  0  0
   32.9546   -9.0025   36.9959 C   0  0  0  0  0  0  0  0  0  0  0  0
   31.5997   -8.9856   37.2246 C   0  0  0  0  0  0  0  0  0  0  0  0
   30.9033  -10.0954   37.6319 C   0  0  0  0  0  0  0  0  0  0  0  0
   31.6100  -11.2675   37.8140 C   0  0  0  0  0  0  0  0  0  0  0  0
   31.2751  -12.5209   38.1962 N   0  0  0  0  0  0  0  0  0  0  0  0
   32.3718  -13.3107   38.2120 C   0  0  0  0  0  0  0  0  0  0  0  0
   33.4739  -12.5701   37.8307 C   0  0  0  0  0  0  0  0  0  0  0  0
   32.9895  -11.3044   37.5863 C   0  0  0  0  0  0  0  0  0  0  0  0
   33.6642  -10.1660   37.1752 C   0  0  0  0  0  0  0  0  0  0  0  0
   30.3072  -12.8169   38.4392 H   0  0  0  0  0  0  0  0  0  0  0  0
   34.8452   -8.0240   35.8527 C   0  0  0  0  0  0  0  0  0  0  0  0
   33.6652   -7.8851   36.5842 O   0  0  0  0  0  0  0  0  0  0  0  0
 27 28  1  0  0  0
 28 17  1  0  0  0
 17 18  2  0  0  0
 18 19  1  0  0  0
 19 20  2  0  0  0
 20 21  1  0  0  0
 21 22  1  0  0  0
 22 23  2  0  0  0
 23 16  1  0  0  0
 16  1  1  0  0  0
  1  2  2  0  0  0
  2  3  1  0  0  0
  3  4  2  0  0  0
  4  7  1  0  0  0
  7  9  1  0  0  0
  9 10  1  0  0  0
 10 11  1  0  0  0
 11 12  1  0  0  0
 12 13  1  0  0  0
 13 14  1  0  0  0
 14 15  1  0  0  0
  4  5  1  0  0  0
  5  6  2  0  0  0
 23 24  1  0  0  0
 24 25  2  0  0  0
 25 17  1  0  0  0
 24 20  1  0  0  0
  6  1  1  0  0  0
 15 11  1  0  0  0
 21 26  1  0  0  0
  7  8  1  0  0  0
M  END
> <minimizedAffinity>
-7.82063

> <CNNscore>
0.6852325797

> <CNNaffinity>
6.0269446373

> <CNN_VS>
4.1298589706

> <CNNaffinity_variance>
0.1619396210

$$$$
[H]c1c([H])c(C([H])([H])c2c([H])n([H])c3c([H])c([H])c(OC([H])([H])[H])c([H])c23)c([H])c([H])c1N([H])C([H])([H])C([H])([H])N1C([H])([H])C([H])([H])C([H])([H])C1([H])[H]


 28 31  0  0  0  0  0  0  0  0999 V2000
   35.6622  -17.3456   35.7184 C   0  0  0  0  0  0  0  0  0  0  0  0
   36.6865  -17.7667   36.5301 C   0  0  0  0  0  0  0  0  0  0  0  0
   37.6694  -18.6530   36.0537 C   0  0  0  0  0  0  0  0  0  0  0  0
   37.6585  -19.1371   34.7774 C   0  0  0  0  0  0  0  0  0  0  0  0
   36.6013  -18.6970   33.9511 C   0  0  0  0  0  0  0  0  0  0  0  0
   35.6509  -17.8319   34.4307 C   0  0  0  0  0  0  0  0  0  0  0  0
   38.5940  -20.0633   34.2453 N   0  0  0  0  0  0  0  0  0  0  0  0
   38.1689  -20.8281   33.5845 H   0  0  0  0  0  0  0  0  0  0  0  0
   39.9854  -20.1593   34.4308 C   0  0  0  0  0  0  0  0  0  0  0  0
   40.8108  -18.9963   34.0101 C   0  0  0  0  0  0  0  0  0  0  0  0
   42.0010  -18.9276   34.8889 N   0  0  0  0  0  0  0  0  0  0  0  0
   41.4819  -18.9755   36.2478 C   0  0  0  0  0  0  0  0  0  0  0  0
   42.4723  -18.2046   37.0931 C   0  0  0  0  0  0  0  0  0  0  0  0
   43.4162  -17.5747   36.1002 C   0  0  0  0  0  0  0  0  0  0  0  0
   42.6334  -17.6346   34.8090 C   0  0  0  0  0  0  0  0  0  0  0  0
   34.6118  -16.4122   36.1955 C   0  0  0  0  0  0  0  0  0  0  0  0
   32.5895  -12.5878   37.4496 C   0  0  0  0  0  0  0  0  0  0  0  0
   33.4047  -11.4821   37.4113 C   0  0  0  0  0  0  0  0  0  0  0  0
   34.7195  -11.5442   37.0240 C   0  0  0  0  0  0  0  0  0  0  0  0
   35.2260  -12.7765   36.6615 C   0  0  0  0  0  0  0  0  0  0  0  0
   36.4347  -13.2119   36.2388 N   0  0  0  0  0  0  0  0  0  0  0  0
   36.3964  -14.5442   36.0148 C   0  0  0  0  0  0  0  0  0  0  0  0
   35.1292  -15.0185   36.2937 C   0  0  0  0  0  0  0  0  0  0  0  0
   34.4118  -13.9132   36.6940 C   0  0  0  0  0  0  0  0  0  0  0  0
   33.0874  -13.8175   37.0901 C   0  0  0  0  0  0  0  0  0  0  0  0
   37.2637  -12.5957   36.1103 H   0  0  0  0  0  0  0  0  0  0  0  0
   30.5563  -11.3290   37.7956 C   0  0  0  0  0  0  0  0  0  0  0  0
   31.2600  -12.5329   37.8399 O   0  0  0  0  0  0  0  0  0  0  0  0
 27 28  1  0  0  0
 28 17  1  0  0  0
 17 18  2  0  0  0
 18 19  1  0  0  0
 19 20  2  0  0  0
 20 21  1  0  0  0
 21 22  1  0  0  0
 22 23  2  0  0  0
 23 16  1  0  0  0
 16  1  1  0  0  0
  1  2  2  0  0  0
  2  3  1  0  0  0
  3  4  2  0  0  0
  4  7  1  0  0  0
  7  9  1  0  0  0
  9 10  1  0  0  0
 10 11  1  0  0  0
 11 12  1  0  0  0
 12 13  1  0  0  0
 13 14  1  0  0  0
 14 15  1  0  0  0
  4  5  1  0  0  0
  5  6  2  0  0  0
 23 24  1  0  0  0
 24 25  2  0  0  0
 25 17  1  0  0  0
 24 20  1  0  0  0
  6  1  1  0  0  0
 15 11  1  0  0  0
 21 26  1  0  0  0
  7  8  1  0  0  0
M  END
> <minimizedAffinity>
-6.78152

> <CNNscore>
0.6770985126

> <CNNaffinity>
5.5641999245

> <CNN_VS>
3.7675116062

> <CNNaffinity_variance>
0.3687767982

$$$$
[H]c1c([H])c(C([H])([H])c2c([H])n([H])c3c([H])c([H])c(OC([H])([H])[H])c([H])c23)c([H])c([H])c1N([H])C([H])([H])C([H])([H])N1C([H])([H])C([H])([H])C([H])([H])C1([H])[H]


 28 31  0  0  0  0  0  0  0  0999 V2000
   34.9962  -13.4625   37.1066 C   0  0  0  0  0  0  0  0  0  0  0  0
   35.2613  -12.2662   36.4869 C   0  0  0  0  0  0  0  0  0  0  0  0
   34.4700  -11.1307   36.7376 C   0  0  0  0  0  0  0  0  0  0  0  0
   33.4098  -11.1554   37.5970 C   0  0  0  0  0  0  0  0  0  0  0  0
   33.1465  -12.3903   38.2294 C   0  0  0  0  0  0  0  0  0  0  0  0
   33.9282  -13.4883   37.9747 C   0  0  0  0  0  0  0  0  0  0  0  0
   32.5472  -10.0596   37.8646 N   0  0  0  0  0  0  0  0  0  0  0  0
   32.9295   -9.3313   38.5896 H   0  0  0  0  0  0  0  0  0  0  0  0
   31.2741   -9.7566   37.3479 C   0  0  0  0  0  0  0  0  0  0  0  0
   30.3026  -10.8761   37.2295 C   0  0  0  0  0  0  0  0  0  0  0  0
   29.4312  -10.8651   38.4270 N   0  0  0  0  0  0  0  0  0  0  0  0
   28.1534  -11.4003   37.9807 C   0  0  0  0  0  0  0  0  0  0  0  0
   27.1070  -10.7540   38.8621 C   0  0  0  0  0  0  0  0  0  0  0  0
   27.8579   -9.7063   39.6446 C   0  0  0  0  0  0  0  0  0  0  0  0
   29.1163   -9.5171   38.8295 C   0  0  0  0  0  0  0  0  0  0  0  0
   35.8140  -14.6759   36.8595 C   0  0  0  0  0  0  0  0  0  0  0  0
   37.1657  -18.4172   34.7467 C   0  0  0  0  0  0  0  0  0  0  0  0
   36.1503  -19.1209   34.1447 C   0  0  0  0  0  0  0  0  0  0  0  0
   34.8407  -18.7142   34.1873 C   0  0  0  0  0  0  0  0  0  0  0  0
   34.5509  -17.5478   34.8672 C   0  0  0  0  0  0  0  0  0  0  0  0
   33.4141  -16.8578   35.1142 N   0  0  0  0  0  0  0  0  0  0  0  0
   33.6895  -15.7552   35.8456 C   0  0  0  0  0  0  0  0  0  0  0  0
   35.0466  -15.7009   36.0978 C   0  0  0  0  0  0  0  0  0  0  0  0
   35.5708  -16.8179   35.4862 C   0  0  0  0  0  0  0  0  0  0  0  0
   36.8842  -17.2554   35.4252 C   0  0  0  0  0  0  0  0  0  0  0  0
   32.4719  -17.1490   34.7813 H   0  0  0  0  0  0  0  0  0  0  0  0
   39.1678  -18.9224   33.4918 C   0  0  0  0  0  0  0  0  0  0  0  0
   38.4915  -18.8219   34.7080 O   0  0  0  0  0  0  0  0  0  0  0  0
 27 28  1  0  0  0
 28 17  1  0  0  0
 17 18  2  0  0  0
 18 19  1  0  0  0
 19 20  2  0  0  0
 20 21  1  0  0  0
 21 22  1  0  0  0
 22 23  2  0  0  0
 23 16  1  0  0  0
 16  1  1  0  0  0
  1  2  2  0  0  0
  2  3  1  0  0  0
  3  4  2  0  0  0
  4  7  1  0  0  0
  7  9  1  0  0  0
  9 10  1  0  0  0
 10 11  1  0  0  0
 11 12  1  0  0  0
 12 13  1  0  0  0
 13 14  1  0  0  0
 14 15  1  0  0  0
  4  5  1  0  0  0
  5  6  2  0  0  0
 23 24  1  0  0  0
 24 25  2  0  0  0
 25 17  1  0  0  0
 24 20  1  0  0  0
  6  1  1  0  0  0
 15 11  1  0  0  0
 21 26  1  0  0  0
  7  8  1  0  0  0
M  END
> <minimizedAffinity>
-8.15073

> <CNNscore>
0.6282403469

> <CNNaffinity>
6.3690233231

> <CNN_VS>
4.0012774467

> <CNNaffinity_variance>
0.1849267185

$$$$
[H]OC([H])([H])C1=C([H])C2=C(C([H])=C3C(=C1[H])[C@@]([H])(C([H])([H])[H])c1c([H])c(F)c([H])c([H])c13)c1c([H])c(C#N)c(F)c([H])c1C([H])([H])C2([H])[H]


 31 35  0  0  0  0  0  0  0  0999 V2000
   34.2168  -19.6990   33.2852 C   0  0  0  0  0  0  0  0  0  0  0  0
   33.8580  -18.8563   34.5154 C   0  0  0  0  0  0  0  0  0  0  0  0
   32.4558  -19.2550   34.8691 C   0  0  0  0  0  0  0  0  0  0  0  0
   31.2538  -18.9528   34.2146 C   0  0  0  0  0  0  0  0  0  0  0  0
   30.0951  -19.5374   34.6666 C   0  0  0  0  0  0  0  0  0  0  0  0
   28.8878  -19.2722   34.0568 F   0  0  0  0  0  0  0  0  0  0  0  0
   30.1720  -20.3903   35.7390 C   0  0  0  0  0  0  0  0  0  0  0  0
   31.3489  -20.7005   36.4005 C   0  0  0  0  0  0  0  0  0  0  0  0
   32.5310  -20.1070   35.9465 C   0  0  0  0  0  0  0  0  0  0  0  0
   33.8862  -20.1356   36.4846 C   0  0  0  0  0  0  0  0  0  0  0  0
   34.1168  -20.9202   37.5192 C   0  0  0  0  0  0  0  0  0  0  0  0
   35.2639  -21.2512   38.3319 C   0  0  0  0  0  0  0  0  0  0  0  0
   36.4856  -20.7188   38.5090 C   0  0  0  0  0  0  0  0  0  0  0  0
   37.5136  -21.2223   39.4041 C   0  0  0  0  0  0  0  0  0  0  0  0
   37.1510  -22.3535   40.2585 C   0  0  0  0  0  0  0  0  0  0  0  0
   35.8283  -22.9542   39.9755 C   0  0  0  0  0  0  0  0  0  0  0  0
   35.5001  -24.1220   40.6648 C   0  0  0  0  0  0  0  0  0  0  0  0
   34.2872  -24.7417   40.4730 C   0  0  0  0  0  0  0  0  0  0  0  0
   33.9576  -25.8845   41.1444 F   0  0  0  0  0  0  0  0  0  0  0  0
   33.3589  -24.2391   39.6009 C   0  0  0  0  0  0  0  0  0  0  0  0
   33.6814  -23.0710   38.9066 C   0  0  0  0  0  0  0  0  0  0  0  0
   34.8903  -22.4360   39.0872 C   0  0  0  0  0  0  0  0  0  0  0  0
   37.1302  -19.5631   37.8371 C   0  0  0  0  0  0  0  0  0  0  0  0
   36.9547  -18.7552   36.8256 C   0  0  0  0  0  0  0  0  0  0  0  0
   35.8827  -18.6617   35.8340 C   0  0  0  0  0  0  0  0  0  0  0  0
   34.6805  -19.2022   35.6679 C   0  0  0  0  0  0  0  0  0  0  0  0
   38.0120  -17.7229   36.6384 C   0  0  0  0  0  0  0  0  0  0  0  0
   37.5044  -16.4877   36.9994 O   0  0  0  0  0  0  0  0  0  0  0  0
   37.0708  -16.0596   36.2108 H   0  0  0  0  0  0  0  0  0  0  0  0
   32.0817  -24.8270   39.3517 C   0  0  0  0  0  0  0  0  0  0  0  0
   31.0200  -25.3042   39.1656 N   0  0  0  0  0  0  0  0  0  0  0  0
  1  2  1  0  0  0
  2  3  1  0  0  0
  3  4  2  0  0  0
  4  5  1  0  0  0
  5  6  1  0  0  0
  5  7  2  0  0  0
  7  8  1  0  0  0
  8  9  2  0  0  0
  9 10  1  0  0  0
 10 11  2  0  0  0
 11 12  1  0  0  0
 12 13  2  0  0  0
 13 14  1  0  0  0
 14 15  1  0  0  0
 15 16  1  0  0  0
 16 17  2  0  0  0
 17 18  1  0  0  0
 18 19  1  0  0  0
 18 20  2  0  0  0
 20 21  1  0  0  0
 21 22  2  0  0  0
 20 30  1  0  0  0
 30 31  3  0  0  0
 13 23  1  0  0  0
 23 24  2  0  0  0
 24 27  1  0  0  0
 27 28  1  0  0  0
 24 25  1  0  0  0
 25 26  2  0  0  0
 26  2  1  0  0  0
  9  3  1  0  0  0
 26 10  1  0  0  0
 22 12  1  0  0  0
 22 16  1  0  0  0
 28 29  1  0  0  0
M  END
> <minimizedAffinity>
-3.81732

> <CNNscore>
0.5703652501

> <CNNaffinity>
5.7004046440

> <CNN_VS>
3.2513127327

> <CNNaffinity_variance>
0.1748270690

$$$$
[H]OC([H])([H])C1=C([H])C2=C(C([H])=C3C(=C1[H])[C@@]([H])(C([H])([H])[H])c1c([H])c(F)c([H])c([H])c13)c1c([H])c(C#N)c(F)c([H])c1C([H])([H])C2([H])[H]


 31 35  0  0  0  0  0  0  0  0999 V2000
   34.6318  -11.0372   35.8558 C   0  0  0  0  0  0  0  0  0  0  0  0
   34.6873  -11.6872   37.2439 C   0  0  0  0  0  0  0  0  0  0  0  0
   33.2602  -11.9906   37.5926 C   0  0  0  0  0  0  0  0  0  0  0  0
   32.2289  -11.1146   37.9582 C   0  0  0  0  0  0  0  0  0  0  0  0
   30.9616  -11.6220   38.1163 C   0  0  0  0  0  0  0  0  0  0  0  0
   29.9138  -10.8015   38.4750 F   0  0  0  0  0  0  0  0  0  0  0  0
   30.7676  -12.9646   37.9081 C   0  0  0  0  0  0  0  0  0  0  0  0
   31.7731  -13.8470   37.5485 C   0  0  0  0  0  0  0  0  0  0  0  0
   33.0652  -13.3368   37.3881 C   0  0  0  0  0  0  0  0  0  0  0  0
   34.3354  -14.0065   37.1331 C   0  0  0  0  0  0  0  0  0  0  0  0
   34.3073  -15.3054   36.9070 C   0  0  0  0  0  0  0  0  0  0  0  0
   35.2855  -16.3263   36.6127 C   0  0  0  0  0  0  0  0  0  0  0  0
   36.6256  -16.4047   36.6869 C   0  0  0  0  0  0  0  0  0  0  0  0
   37.4329  -17.5606   36.3352 C   0  0  0  0  0  0  0  0  0  0  0  0
   36.7155  -18.7787   35.9577 C   0  0  0  0  0  0  0  0  0  0  0  0
   35.2505  -18.6246   35.8147 C   0  0  0  0  0  0  0  0  0  0  0  0
   34.5420  -19.7188   35.3174 C   0  0  0  0  0  0  0  0  0  0  0  0
   33.1761  -19.6686   35.1628 C   0  0  0  0  0  0  0  0  0  0  0  0
   32.4748  -20.7354   34.6777 F   0  0  0  0  0  0  0  0  0  0  0  0
   32.4618  -18.5467   35.4888 C   0  0  0  0  0  0  0  0  0  0  0  0
   33.1649  -17.4472   35.9861 C   0  0  0  0  0  0  0  0  0  0  0  0
   34.5322  -17.4802   36.1491 C   0  0  0  0  0  0  0  0  0  0  0  0
   37.6227  -15.3741   37.0692 C   0  0  0  0  0  0  0  0  0  0  0  0
   37.7119  -14.0923   37.3052 C   0  0  0  0  0  0  0  0  0  0  0  0
   36.7031  -13.0323   37.2969 C   0  0  0  0  0  0  0  0  0  0  0  0
   35.3786  -12.9699   37.2144 C   0  0  0  0  0  0  0  0  0  0  0  0
   39.0698  -13.6002   37.6689 C   0  0  0  0  0  0  0  0  0  0  0  0
   39.5465  -12.7976   36.6480 O   0  0  0  0  0  0  0  0  0  0  0  0
   40.0256  -13.3573   35.9769 H   0  0  0  0  0  0  0  0  0  0  0  0
   31.0455  -18.4228   35.3558 C   0  0  0  0  0  0  0  0  0  0  0  0
   29.8740  -18.3420   35.2519 N   0  0  0  0  0  0  0  0  0  0  0  0
  1  2  1  0  0  0
  2  3  1  0  0  0
  3  4  2  0  0  0
  4  5  1  0  0  0
  5  6  1  0  0  0
  5  7  2  0  0  0
  7  8  1  0  0  0
  8  9  2  0  0  0
  9 10  1  0  0  0
 10 11  2  0  0  0
 11 12  1  0  0  0
 12 13  2  0  0  0
 13 14  1  0  0  0
 14 15  1  0  0  0
 15 16  1  0  0  0
 16 17  2  0  0  0
 17 18  1  0  0  0
 18 19  1  0  0  0
 18 20  2  0  0  0
 20 21  1  0  0  0
 21 22  2  0  0  0
 20 30  1  0  0  0
 30 31  3  0  0  0
 13 23  1  0  0  0
 23 24  2  0  0  0
 24 27  1  0  0  0
 27 28  1  0  0  0
 24 25  1  0  0  0
 25 26  2  0  0  0
 26  2  1  0  0  0
  9  3  1  0  0  0
 26 10  1  0  0  0
 22 12  1  0  0  0
 22 16  1  0  0  0
 28 29  1  0  0  0
M  END
> <minimizedAffinity>
-1.55633

> <CNNscore>
0.5317366719

> <CNNaffinity>
6.5825371742

> <CNN_VS>
3.5001764297

> <CNNaffinity_variance>
0.4421913028

$$$$
[H]OC([H])([H])C1=C([H])C2=C(C([H])=C3C(=C1[H])[C@@]([H])(C([H])([H])[H])c1c([H])c(F)c([H])c([H])c13)c1c([H])c(C#N)c(F)c([H])c1C([H])([H])C2([H])[H]


 31 35  0  0  0  0  0  0  0  0999 V2000
   38.8556  -20.1101   33.1316 C   0  0  0  0  0  0  0  0  0  0  0  0
   38.1560  -20.4663   34.4492 C   0  0  0  0  0  0  0  0  0  0  0  0
   39.0980  -20.0189   35.5274 C   0  0  0  0  0  0  0  0  0  0  0  0
   40.3167  -20.5805   35.9324 C   0  0  0  0  0  0  0  0  0  0  0  0
   41.0656  -19.9155   36.8734 C   0  0  0  0  0  0  0  0  0  0  0  0
   42.2709  -20.4267   37.3043 F   0  0  0  0  0  0  0  0  0  0  0  0
   40.5823  -18.7316   37.3716 C   0  0  0  0  0  0  0  0  0  0  0  0
   39.3802  -18.1610   36.9863 C   0  0  0  0  0  0  0  0  0  0  0  0
   38.6128  -18.8342   36.0305 C   0  0  0  0  0  0  0  0  0  0  0  0
   37.2776  -18.5639   35.5097 C   0  0  0  0  0  0  0  0  0  0  0  0
   36.6840  -17.4517   35.8965 C   0  0  0  0  0  0  0  0  0  0  0  0
   35.4180  -16.8084   35.6329 C   0  0  0  0  0  0  0  0  0  0  0  0
   34.2540  -17.1960   35.0831 C   0  0  0  0  0  0  0  0  0  0  0  0
   33.0730  -16.3666   34.9139 C   0  0  0  0  0  0  0  0  0  0  0  0
   33.1249  -15.0180   35.4790 C   0  0  0  0  0  0  0  0  0  0  0  0
   34.4469  -14.6085   36.0036 C   0  0  0  0  0  0  0  0  0  0  0  0
   34.5828  -13.2838   36.4199 C   0  0  0  0  0  0  0  0  0  0  0  0
   35.7722  -12.8197   36.9318 C   0  0  0  0  0  0  0  0  0  0  0  0
   35.9136  -11.5249   37.3425 F   0  0  0  0  0  0  0  0  0  0  0  0
   36.8648  -13.6364   37.0512 C   0  0  0  0  0  0  0  0  0  0  0  0
   36.7361  -14.9633   36.6352 C   0  0  0  0  0  0  0  0  0  0  0  0
   35.5525  -15.4458   36.1217 C   0  0  0  0  0  0  0  0  0  0  0  0
   33.8734  -18.4915   34.4671 C   0  0  0  0  0  0  0  0  0  0  0  0
   34.4056  -19.6151   34.0661 C   0  0  0  0  0  0  0  0  0  0  0  0
   35.7864  -20.0986   34.0945 C   0  0  0  0  0  0  0  0  0  0  0  0
   36.9313  -19.6988   34.6371 C   0  0  0  0  0  0  0  0  0  0  0  0
   33.4540  -20.6059   33.4904 C   0  0  0  0  0  0  0  0  0  0  0  0
   33.0948  -21.5097   34.4743 O   0  0  0  0  0  0  0  0  0  0  0  0
   33.7407  -22.2685   34.4849 H   0  0  0  0  0  0  0  0  0  0  0  0
   38.1288  -13.2249   37.5728 C   0  0  0  0  0  0  0  0  0  0  0  0
   39.1745  -12.9053   38.0133 N   0  0  0  0  0  0  0  0  0  0  0  0
  1  2  1  0  0  0
  2  3  1  0  0  0
  3  4  2  0  0  0
  4  5  1  0  0  0
  5  6  1  0  0  0
  5  7  2  0  0  0
  7  8  1  0  0  0
  8  9  2  0  0  0
  9 10  1  0  0  0
 10 11  2  0  0  0
 11 12  1  0  0  0
 12 13  2  0  0  0
 13 14  1  0  0  0
 14 15  1  0  0  0
 15 16  1  0  0  0
 16 17  2  0  0  0
 17 18  1  0  0  0
 18 19  1  0  0  0
 18 20  2  0  0  0
 20 21  1  0  0  0
 21 22  2  0  0  0
 20 30  1  0  0  0
 30 31  3  0  0  0
 13 23  1  0  0  0
 23 24  2  0  0  0
 24 27  1  0  0  0
 27 28  1  0  0  0
 24 25  1  0  0  0
 25 26  2  0  0  0
 26  2  1  0  0  0
  9  3  1  0  0  0
 26 10  1  0  0  0
 22 12  1  0  0  0
 22 16  1  0  0  0
 28 29  1  0  0  0
M  END
> <minimizedAffinity>
-2.80488

> <CNNscore>
0.5316221714

> <CNNaffinity>
6.1820435524

> <CNN_VS>
3.2865114212

> <CNNaffinity_variance>
0.3513459563

$$$$
[H]OC([H])([H])C1=C([H])C2=C(C([H])=C3C(=C1[H])[C@@]([H])(C([H])([H])[H])c1c([H])c(F)c([H])c([H])c13)c1c([H])c(C#N)c(F)c([H])c1C([H])([H])C2([H])[H]


 31 35  0  0  0  0  0  0  0  0999 V2000
   33.7247  -20.0272   34.0539 C   0  0  0  0  0  0  0  0  0  0  0  0
   33.5540  -19.2323   35.3544 C   0  0  0  0  0  0  0  0  0  0  0  0
   32.4971  -19.9649   36.1266 C   0  0  0  0  0  0  0  0  0  0  0  0
   31.1162  -20.0351   35.8968 C   0  0  0  0  0  0  0  0  0  0  0  0
   30.3622  -20.8757   36.6800 C   0  0  0  0  0  0  0  0  0  0  0  0
   29.0006  -20.9801   36.4933 F   0  0  0  0  0  0  0  0  0  0  0  0
   30.9997  -21.6067   37.6509 C   0  0  0  0  0  0  0  0  0  0  0  0
   32.3621  -21.5503   37.8953 C   0  0  0  0  0  0  0  0  0  0  0  0
   33.1343  -20.6951   37.1028 C   0  0  0  0  0  0  0  0  0  0  0  0
   34.5438  -20.3286   37.1802 C   0  0  0  0  0  0  0  0  0  0  0  0
   35.2907  -20.9554   38.0680 C   0  0  0  0  0  0  0  0  0  0  0  0
   36.6790  -20.9173   38.4646 C   0  0  0  0  0  0  0  0  0  0  0  0
   37.7015  -20.0696   38.2561 C   0  0  0  0  0  0  0  0  0  0  0  0
   39.0540  -20.2237   38.7644 C   0  0  0  0  0  0  0  0  0  0  0  0
   39.2989  -21.3530   39.6621 C   0  0  0  0  0  0  0  0  0  0  0  0
   38.1699  -22.2999   39.8008 C   0  0  0  0  0  0  0  0  0  0  0  0
   38.4045  -23.4659   40.5301 C   0  0  0  0  0  0  0  0  0  0  0  0
   37.4091  -24.3962   40.7198 C   0  0  0  0  0  0  0  0  0  0  0  0
   37.6300  -25.5397   41.4332 F   0  0  0  0  0  0  0  0  0  0  0  0
   36.1548  -24.2150   40.2014 C   0  0  0  0  0  0  0  0  0  0  0  0
   35.9134  -23.0506   39.4692 C   0  0  0  0  0  0  0  0  0  0  0  0
   36.8975  -22.1075   39.2705 C   0  0  0  0  0  0  0  0  0  0  0  0
   37.7636  -18.8302   37.4421 C   0  0  0  0  0  0  0  0  0  0  0  0
   37.0677  -18.1648   36.5592 C   0  0  0  0  0  0  0  0  0  0  0  0
   35.7564  -18.4231   35.9634 C   0  0  0  0  0  0  0  0  0  0  0  0
   34.7572  -19.2726   36.1759 C   0  0  0  0  0  0  0  0  0  0  0  0
   37.6906  -16.9034   36.0700 C   0  0  0  0  0  0  0  0  0  0  0  0
   36.8779  -15.8375   36.4121 O   0  0  0  0  0  0  0  0  0  0  0  0
   36.2074  -15.6819   35.6914 H   0  0  0  0  0  0  0  0  0  0  0  0
   35.0744  -25.1355   40.3579 C   0  0  0  0  0  0  0  0  0  0  0  0
   34.1683  -25.8780   40.4897 N   0  0  0  0  0  0  0  0  0  0  0  0
  1  2  1  0  0  0
  2  3  1  0  0  0
  3  4  2  0  0  0
  4  5  1  0  0  0
  5  6  1  0  0  0
  5  7  2  0  0  0
  7  8  1  0  0  0
  8  9  2  0  0  0
  9 10  1  0  0  0
 10 11  2  0  0  0
 11 12  1  0  0  0
 12 13  2  0  0  0
 13 14  1  0  0  0
 14 15  1  0  0  0
 15 16  1  0  0  0
 16 17  2  0  0  0
 17 18  1  0  0  0
 18 19  1  0  0  0
 18 20  2  0  0  0
 20 21  1  0  0  0
 21 22  2  0  0  0
 20 30  1  0  0  0
 30 31  3  0  0  0
 13 23  1  0  0  0
 23 24  2  0  0  0
 24 27  1  0  0  0
 27 28  1  0  0  0
 24 25  1  0  0  0
 25 26  2  0  0  0
 26  2  1  0  0  0
  9  3  1  0  0  0
 26 10  1  0  0  0
 22 12  1  0  0  0
 22 16  1  0  0  0
 28 29  1  0  0  0
M  END
> <minimizedAffinity>
-1.73483

> <CNNscore>
0.5079504251

> <CNNaffinity>
5.6995339394

> <CNN_VS>
2.8950808048

> <CNNaffinity_variance>
0.8425685763

$$$$
[H]OC([H])([H])C1=C([H])C2=C(C([H])=C3C(=C1[H])[C@@]([H])(C([H])([H])[H])c1c([H])c(F)c([H])c([H])c13)c1c([H])c(C#N)c(F)c([H])c1C([H])([H])C2([H])[H]


 31 35  0  0  0  0  0  0  0  0999 V2000
   36.0984  -20.5651   40.7057 C   0  0  0  0  0  0  0  0  0  0  0  0
   36.5130  -21.0526   39.3119 C   0  0  0  0  0  0  0  0  0  0  0  0
   36.2296  -22.5256   39.3106 C   0  0  0  0  0  0  0  0  0  0  0  0
   36.9120  -23.5626   39.9616 C   0  0  0  0  0  0  0  0  0  0  0  0
   36.3865  -24.8311   39.9052 C   0  0  0  0  0  0  0  0  0  0  0  0
   37.0199  -25.8845   40.5290 F   0  0  0  0  0  0  0  0  0  0  0  0
   35.2169  -25.0208   39.2127 C   0  0  0  0  0  0  0  0  0  0  0  0
   34.5286  -24.0104   38.5614 C   0  0  0  0  0  0  0  0  0  0  0  0
   35.0595  -22.7178   38.6135 C   0  0  0  0  0  0  0  0  0  0  0  0
   34.6483  -21.4851   37.9514 C   0  0  0  0  0  0  0  0  0  0  0  0
   33.5323  -21.5112   37.2492 C   0  0  0  0  0  0  0  0  0  0  0  0
   32.7774  -20.5582   36.4695 C   0  0  0  0  0  0  0  0  0  0  0  0
   33.0299  -19.3419   35.9556 C   0  0  0  0  0  0  0  0  0  0  0  0
   32.1044  -18.5360   35.1777 C   0  0  0  0  0  0  0  0  0  0  0  0
   30.8162  -19.1444   34.8438 C   0  0  0  0  0  0  0  0  0  0  0  0
   30.5514  -20.4477   35.4933 C   0  0  0  0  0  0  0  0  0  0  0  0
   29.2806  -20.9971   35.3206 C   0  0  0  0  0  0  0  0  0  0  0  0
   28.9507  -22.2105   35.8785 C   0  0  0  0  0  0  0  0  0  0  0  0
   27.7095  -22.7559   35.7136 F   0  0  0  0  0  0  0  0  0  0  0  0
   29.8529  -22.9227   36.6227 C   0  0  0  0  0  0  0  0  0  0  0  0
   31.1265  -22.3779   36.8005 C   0  0  0  0  0  0  0  0  0  0  0  0
   31.4749  -21.1652   36.2481 C   0  0  0  0  0  0  0  0  0  0  0  0
   34.2367  -18.4863   36.0755 C   0  0  0  0  0  0  0  0  0  0  0  0
   35.3582  -18.4081   36.7408 C   0  0  0  0  0  0  0  0  0  0  0  0
   35.9428  -19.2783   37.7617 C   0  0  0  0  0  0  0  0  0  0  0  0
   35.6761  -20.4782   38.2659 C   0  0  0  0  0  0  0  0  0  0  0  0
   36.2236  -17.2434   36.4042 C   0  0  0  0  0  0  0  0  0  0  0  0
   35.4355  -16.1110   36.3030 O   0  0  0  0  0  0  0  0  0  0  0  0
   35.0993  -16.0185   35.3695 H   0  0  0  0  0  0  0  0  0  0  0  0
   29.5816  -24.1860   37.2304 C   0  0  0  0  0  0  0  0  0  0  0  0
   29.3515  -25.2184   37.7509 N   0  0  0  0  0  0  0  0  0  0  0  0
  1  2  1  0  0  0
  2  3  1  0  0  0
  3  4  2  0  0  0
  4  5  1  0  0  0
  5  6  1  0  0  0
  5  7  2  0  0  0
  7  8  1  0  0  0
  8  9  2  0  0  0
  9 10  1  0  0  0
 10 11  2  0  0  0
 11 12  1  0  0  0
 12 13  2  0  0  0
 13 14  1  0  0  0
 14 15  1  0  0  0
 15 16  1  0  0  0
 16 17  2  0  0  0
 17 18  1  0  0  0
 18 19  1  0  0  0
 18 20  2  0  0  0
 20 21  1  0  0  0
 21 22  2  0  0  0
 20 30  1  0  0  0
 30 31  3  0  0  0
 13 23  1  0  0  0
 23 24  2  0  0  0
 24 27  1  0  0  0
 27 28  1  0  0  0
 24 25  1  0  0  0
 25 26  2  0  0  0
 26  2  1  0  0  0
  9  3  1  0  0  0
 26 10  1  0  0  0
 22 12  1  0  0  0
 22 16  1  0  0  0
 28 29  1  0  0  0
M  END
> <minimizedAffinity>
-5.47566

> <CNNscore>
0.4967615604

> <CNNaffinity>
5.3739027977

> <CNN_VS>
2.6695482731

> <CNNaffinity_variance>
0.1127321869

$$$$
[H]OC([H])([H])C1=C([H])C2=C(C([H])=C3C(=C1[H])[C@@]([H])(C([H])([H])[H])c1c([H])c(F)c([H])c([H])c13)c1c([H])c(C#N)c(F)c([H])c1C([H])([H])C2([H])[H]


 31 35  0  0  0  0  0  0  0  0999 V2000
   33.2054  -15.2092   36.9918 C   0  0  0  0  0  0  0  0  0  0  0  0
   34.0288  -15.7760   35.8286 C   0  0  0  0  0  0  0  0  0  0  0  0
   35.4607  -15.6098   36.2435 C   0  0  0  0  0  0  0  0  0  0  0  0
   36.2331  -14.4429   36.3241 C   0  0  0  0  0  0  0  0  0  0  0  0
   37.4996  -14.5290   36.8506 C   0  0  0  0  0  0  0  0  0  0  0  0
   38.2983  -13.4102   36.9512 F   0  0  0  0  0  0  0  0  0  0  0  0
   37.9469  -15.7560   37.2726 C   0  0  0  0  0  0  0  0  0  0  0  0
   37.2005  -16.9207   37.1998 C   0  0  0  0  0  0  0  0  0  0  0  0
   35.9117  -16.8397   36.6630 C   0  0  0  0  0  0  0  0  0  0  0  0
   34.9372  -17.8782   36.3489 C   0  0  0  0  0  0  0  0  0  0  0  0
   35.2267  -19.1154   36.7019 C   0  0  0  0  0  0  0  0  0  0  0  0
   34.5748  -20.4002   36.6007 C   0  0  0  0  0  0  0  0  0  0  0  0
   33.5325  -20.8819   35.9014 C   0  0  0  0  0  0  0  0  0  0  0  0
   33.0323  -22.2454   35.9470 C   0  0  0  0  0  0  0  0  0  0  0  0
   33.7906  -23.2019   36.7538 C   0  0  0  0  0  0  0  0  0  0  0  0
   34.8800  -22.6133   37.5646 C   0  0  0  0  0  0  0  0  0  0  0  0
   35.5363  -23.4607   38.4578 C   0  0  0  0  0  0  0  0  0  0  0  0
   36.5686  -23.0017   39.2426 C   0  0  0  0  0  0  0  0  0  0  0  0
   37.2171  -23.8245   40.1187 F   0  0  0  0  0  0  0  0  0  0  0  0
   36.9897  -21.7003   39.1784 C   0  0  0  0  0  0  0  0  0  0  0  0
   36.3363  -20.8463   38.2872 C   0  0  0  0  0  0  0  0  0  0  0  0
   35.3018  -21.2888   37.4926 C   0  0  0  0  0  0  0  0  0  0  0  0
   32.6010  -20.1892   34.9767 C   0  0  0  0  0  0  0  0  0  0  0  0
   32.2712  -18.9865   34.5876 C   0  0  0  0  0  0  0  0  0  0  0  0
   32.7885  -17.6701   34.9626 C   0  0  0  0  0  0  0  0  0  0  0  0
   33.8186  -17.2087   35.6634 C   0  0  0  0  0  0  0  0  0  0  0  0
   31.1904  -18.9172   33.5650 C   0  0  0  0  0  0  0  0  0  0  0  0
   29.9897  -19.2705   34.1541 O   0  0  0  0  0  0  0  0  0  0  0  0
   29.8632  -20.2571   34.0927 H   0  0  0  0  0  0  0  0  0  0  0  0
   38.0526  -21.1548   39.9605 C   0  0  0  0  0  0  0  0  0  0  0  0
   38.9298  -20.7229   40.6190 N   0  0  0  0  0  0  0  0  0  0  0  0
  1  2  1  0  0  0
  2  3  1  0  0  0
  3  4  2  0  0  0
  4  5  1  0  0  0
  5  6  1  0  0  0
  5  7  2  0  0  0
  7  8  1  0  0  0
  8  9  2  0  0  0
  9 10  1  0  0  0
 10 11  2  0  0  0
 11 12  1  0  0  0
 12 13  2  0  0  0
 13 14  1  0  0  0
 14 15  1  0  0  0
 15 16  1  0  0  0
 16 17  2  0  0  0
 17 18  1  0  0  0
 18 19  1  0  0  0
 18 20  2  0  0  0
 20 21  1  0  0  0
 21 22  2  0  0  0
 20 30  1  0  0  0
 30 31  3  0  0  0
 13 23  1  0  0  0
 23 24  2  0  0  0
 24 27  1  0  0  0
 27 28  1  0  0  0
 24 25  1  0  0  0
 25 26  2  0  0  0
 26  2  1  0  0  0
  9  3  1  0  0  0
 26 10  1  0  0  0
 22 12  1  0  0  0
 22 16  1  0  0  0
 28 29  1  0  0  0
M  END
> <minimizedAffinity>
-3.07005

> <CNNscore>
0.4256022573

> <CNNaffinity>
5.8435111046

> <CNN_VS>
2.4870114326

> <CNNaffinity_variance>
0.4107590318

$$$$
[H]OC([H])([H])C1=C([H])C2=C(C([H])=C3C(=C1[H])[C@@]([H])(C([H])([H])[H])c1c([H])c(F)c([H])c([H])c13)c1c([H])c(C#N)c(F)c([H])c1C([H])([H])C2([H])[H]


 31 35  0  0  0  0  0  0  0  0999 V2000
   32.6670  -20.1103   33.3501 C   0  0  0  0  0  0  0  0  0  0  0  0
   32.5198  -19.3194   34.6559 C   0  0  0  0  0  0  0  0  0  0  0  0
   31.5576  -20.1130   35.4894 C   0  0  0  0  0  0  0  0  0  0  0  0
   30.1732  -20.2726   35.3389 C   0  0  0  0  0  0  0  0  0  0  0  0
   29.5203  -21.1545   36.1663 C   0  0  0  0  0  0  0  0  0  0  0  0
   28.1597  -21.3467   36.0579 F   0  0  0  0  0  0  0  0  0  0  0  0
   30.2574  -21.8370   37.1013 C   0  0  0  0  0  0  0  0  0  0  0  0
   31.6250  -21.6922   37.2674 C   0  0  0  0  0  0  0  0  0  0  0  0
   32.2947  -20.7946   36.4297 C   0  0  0  0  0  0  0  0  0  0  0  0
   33.6798  -20.3384   36.4255 C   0  0  0  0  0  0  0  0  0  0  0  0
   34.5146  -20.9105   37.2710 C   0  0  0  0  0  0  0  0  0  0  0  0
   35.9178  -20.7812   37.5876 C   0  0  0  0  0  0  0  0  0  0  0  0
   36.8704  -19.8715   37.3187 C   0  0  0  0  0  0  0  0  0  0  0  0
   38.2567  -19.9356   37.7495 C   0  0  0  0  0  0  0  0  0  0  0  0
   38.6240  -21.0410   38.6349 C   0  0  0  0  0  0  0  0  0  0  0  0
   37.5677  -22.0572   38.8405 C   0  0  0  0  0  0  0  0  0  0  0  0
   37.9176  -23.2011   39.5586 C   0  0  0  0  0  0  0  0  0  0  0  0
   36.9963  -24.1917   39.8075 C   0  0  0  0  0  0  0  0  0  0  0  0
   37.3301  -25.3141   40.5104 F   0  0  0  0  0  0  0  0  0  0  0  0
   35.7055  -24.0943   39.3610 C   0  0  0  0  0  0  0  0  0  0  0  0
   35.3488  -22.9524   38.6404 C   0  0  0  0  0  0  0  0  0  0  0  0
   36.2575  -21.9498   38.3831 C   0  0  0  0  0  0  0  0  0  0  0  0
   36.8067  -18.6359   36.4989 C   0  0  0  0  0  0  0  0  0  0  0  0
   36.0206  -18.0220   35.6553 C   0  0  0  0  0  0  0  0  0  0  0  0
   34.6968  -18.3674   35.1360 C   0  0  0  0  0  0  0  0  0  0  0  0
   33.7678  -19.2775   35.4076 C   0  0  0  0  0  0  0  0  0  0  0  0
   36.5326  -16.7267   35.1277 C   0  0  0  0  0  0  0  0  0  0  0  0
   36.7983  -15.8812   36.1899 O   0  0  0  0  0  0  0  0  0  0  0  0
   35.9788  -15.3626   36.4193 H   0  0  0  0  0  0  0  0  0  0  0  0
   34.6969  -25.0808   39.5816 C   0  0  0  0  0  0  0  0  0  0  0  0
   33.8500  -25.8831   39.7512 N   0  0  0  0  0  0  0  0  0  0  0  0
  1  2  1  0  0  0
  2  3  1  0  0  0
  3  4  2  0  0  0
  4  5  1  0  0  0
  5  6  1  0  0  0
  5  7  2  0  0  0
  7  8  1  0  0  0
  8  9  2  0  0  0
  9 10  1  0  0  0
 10 11  2  0  0  0
 11 12  1  0  0  0
 12 13  2  0  0  0
 13 14  1  0  0  0
 14 15  1  0  0  0
 15 16  1  0  0  0
 16 17  2  0  0  0
 17 18  1  0  0  0
 18 19  1  0  0  0
 18 20  2  0  0  0
 20 21  1  0  0  0
 21 22  2  0  0  0
 20 30  1  0  0  0
 30 31  3  0  0  0
 13 23  1  0  0  0
 23 24  2  0  0  0
 24 27  1  0  0  0
 27 28  1  0  0  0
 24 25  1  0  0  0
 25 26  2  0  0  0
 26  2  1  0  0  0
  9  3  1  0  0  0
 26 10  1  0  0  0
 22 12  1  0  0  0
 22 16  1  0  0  0
 28 29  1  0  0  0
M  END
> <minimizedAffinity>
-5.56287

> <CNNscore>
0.4179489911

> <CNNaffinity>
5.4887337685

> <CNN_VS>
2.2940106392

> <CNNaffinity_variance>
0.0119761387

$$$$
[H]OC([H])([H])C1=C([H])C2=C(C([H])=C3C(=C1[H])[C@@]([H])(C([H])([H])[H])c1c([H])c(F)c([H])c([H])c13)c1c([H])c(C#N)c(F)c([H])c1C([H])([H])C2([H])[H]


 31 35  0  0  0  0  0  0  0  0999 V2000
   37.0943  -17.7344   36.1294 C   0  0  0  0  0  0  0  0  0  0  0  0
   37.7767  -18.5495   37.2350 C   0  0  0  0  0  0  0  0  0  0  0  0
   36.9061  -19.7558   37.4276 C   0  0  0  0  0  0  0  0  0  0  0  0
   35.6430  -19.8538   38.0272 C   0  0  0  0  0  0  0  0  0  0  0  0
   34.9847  -21.0591   37.9781 C   0  0  0  0  0  0  0  0  0  0  0  0
   33.7406  -21.2064   38.5530 F   0  0  0  0  0  0  0  0  0  0  0  0
   35.5977  -22.1100   37.3431 C   0  0  0  0  0  0  0  0  0  0  0  0
   36.8456  -22.0344   36.7463 C   0  0  0  0  0  0  0  0  0  0  0  0
   37.5212  -20.8110   36.7948 C   0  0  0  0  0  0  0  0  0  0  0  0
   38.8676  -20.4421   36.3729 C   0  0  0  0  0  0  0  0  0  0  0  0
   39.5810  -21.3527   35.7396 C   0  0  0  0  0  0  0  0  0  0  0  0
   40.9021  -21.4133   35.1592 C   0  0  0  0  0  0  0  0  0  0  0  0
   42.0092  -20.6550   35.2413 C   0  0  0  0  0  0  0  0  0  0  0  0
   43.2671  -20.9059   34.5585 C   0  0  0  0  0  0  0  0  0  0  0  0
   43.3663  -22.1464   33.7887 C   0  0  0  0  0  0  0  0  0  0  0  0
   42.1039  -22.9085   33.6625 C   0  0  0  0  0  0  0  0  0  0  0  0
   42.1144  -24.0203   32.8196 C   0  0  0  0  0  0  0  0  0  0  0  0
   40.9893  -24.7937   32.6517 C   0  0  0  0  0  0  0  0  0  0  0  0
   40.9912  -25.8841   31.8293 F   0  0  0  0  0  0  0  0  0  0  0  0
   39.8199  -24.5029   33.3019 C   0  0  0  0  0  0  0  0  0  0  0  0
   39.8020  -23.3906   34.1463 C   0  0  0  0  0  0  0  0  0  0  0  0
   40.9193  -22.6058   34.3278 C   0  0  0  0  0  0  0  0  0  0  0  0
   42.2415  -19.3791   35.9629 C   0  0  0  0  0  0  0  0  0  0  0  0
   41.5879  -18.4457   36.6018 C   0  0  0  0  0  0  0  0  0  0  0  0
   40.1649  -18.2943   36.9075 C   0  0  0  0  0  0  0  0  0  0  0  0
   39.0779  -19.0523   36.8128 C   0  0  0  0  0  0  0  0  0  0  0  0
   42.4204  -17.3351   37.1422 C   0  0  0  0  0  0  0  0  0  0  0  0
   42.6250  -16.3990   36.1445 O   0  0  0  0  0  0  0  0  0  0  0  0
   43.4397  -16.6375   35.6225 H   0  0  0  0  0  0  0  0  0  0  0  0
   38.6153  -25.2594   33.1767 C   0  0  0  0  0  0  0  0  0  0  0  0
   37.6191  -25.8845   33.0957 N   0  0  0  0  0  0  0  0  0  0  0  0
  1  2  1  0  0  0
  2  3  1  0  0  0
  3  4  2  0  0  0
  4  5  1  0  0  0
  5  6  1  0  0  0
  5  7  2  0  0  0
  7  8  1  0  0  0
  8  9  2  0  0  0
  9 10  1  0  0  0
 10 11  2  0  0  0
 11 12  1  0  0  0
 12 13  2  0  0  0
 13 14  1  0  0  0
 14 15  1  0  0  0
 15 16  1  0  0  0
 16 17  2  0  0  0
 17 18  1  0  0  0
 18 19  1  0  0  0
 18 20  2  0  0  0
 20 21  1  0  0  0
 21 22  2  0  0  0
 20 30  1  0  0  0
 30 31  3  0  0  0
 13 23  1  0  0  0
 23 24  2  0  0  0
 24 27  1  0  0  0
 27 28  1  0  0  0
 24 25  1  0  0  0
 25 26  2  0  0  0
 26  2  1  0  0  0
  9  3  1  0  0  0
 26 10  1  0  0  0
 22 12  1  0  0  0
 22 16  1  0  0  0
 28 29  1  0  0  0
M  END
> <minimizedAffinity>
-3.61632

> <CNNscore>
0.4139133394

> <CNNaffinity>
5.5113024712

> <CNN_VS>
2.2812016010

> <CNNaffinity_variance>
0.8941060901

$$$$
[H]OC([H])([H])C1=C([H])C2=C(C([H])=C3C(=C1[H])[C@@]([H])(C([H])([H])[H])c1c([H])c(F)c([H])c([H])c13)c1c([H])c(C#N)c(F)c([H])c1C([H])([H])C2([H])[H]


 31 35  0  0  0  0  0  0  0  0999 V2000
   42.8974  -20.0790   41.1356 C   0  0  0  0  0  0  0  0  0  0  0  0
   43.0774  -20.7641   39.7752 C   0  0  0  0  0  0  0  0  0  0  0  0
   42.6612  -22.1884   39.9947 C   0  0  0  0  0  0  0  0  0  0  0  0
   43.3246  -23.2119   40.6854 C   0  0  0  0  0  0  0  0  0  0  0  0
   42.6811  -24.4145   40.8536 C   0  0  0  0  0  0  0  0  0  0  0  0
   43.2910  -25.4520   41.5255 F   0  0  0  0  0  0  0  0  0  0  0  0
   41.4178  -24.5546   40.3360 C   0  0  0  0  0  0  0  0  0  0  0  0
   40.7460  -23.5567   39.6490 C   0  0  0  0  0  0  0  0  0  0  0  0
   41.3966  -22.3314   39.4728 C   0  0  0  0  0  0  0  0  0  0  0  0
   41.0174  -21.1452   38.7138 C   0  0  0  0  0  0  0  0  0  0  0  0
   39.8210  -21.1306   38.1594 C   0  0  0  0  0  0  0  0  0  0  0  0
   39.0612  -20.1968   37.3615 C   0  0  0  0  0  0  0  0  0  0  0  0
   39.3552  -19.0814   36.6710 C   0  0  0  0  0  0  0  0  0  0  0  0
   38.4137  -18.2743   35.9137 C   0  0  0  0  0  0  0  0  0  0  0  0
   37.0420  -18.7743   35.8164 C   0  0  0  0  0  0  0  0  0  0  0  0
   36.7457  -19.9588   36.6529 C   0  0  0  0  0  0  0  0  0  0  0  0
   35.4179  -20.3840   36.7048 C   0  0  0  0  0  0  0  0  0  0  0  0
   35.0536  -21.4831   37.4475 C   0  0  0  0  0  0  0  0  0  0  0  0
   33.7564  -21.9066   37.5030 F   0  0  0  0  0  0  0  0  0  0  0  0
   35.9763  -22.1989   38.1624 C   0  0  0  0  0  0  0  0  0  0  0  0
   37.3071  -21.7781   38.1158 C   0  0  0  0  0  0  0  0  0  0  0  0
   37.6904  -20.6810   37.3764 C   0  0  0  0  0  0  0  0  0  0  0  0
   40.6412  -18.3530   36.5360 C   0  0  0  0  0  0  0  0  0  0  0  0
   41.8432  -18.3209   37.0467 C   0  0  0  0  0  0  0  0  0  0  0  0
   42.4743  -19.1270   38.0922 C   0  0  0  0  0  0  0  0  0  0  0  0
   42.1666  -20.2258   38.7727 C   0  0  0  0  0  0  0  0  0  0  0  0
   42.7606  -17.3025   36.4640 C   0  0  0  0  0  0  0  0  0  0  0  0
   42.1445  -16.0646   36.5061 O   0  0  0  0  0  0  0  0  0  0  0  0
   41.6089  -15.9279   35.6769 H   0  0  0  0  0  0  0  0  0  0  0  0
   35.6718  -23.3481   38.9535 C   0  0  0  0  0  0  0  0  0  0  0  0
   35.4179  -24.2835   39.6245 N   0  0  0  0  0  0  0  0  0  0  0  0
  1  2  1  0  0  0
  2  3  1  0  0  0
  3  4  2  0  0  0
  4  5  1  0  0  0
  5  6  1  0  0  0
  5  7  2  0  0  0
  7  8  1  0  0  0
  8  9  2  0  0  0
  9 10  1  0  0  0
 10 11  2  0  0  0
 11 12  1  0  0  0
 12 13  2  0  0  0
 13 14  1  0  0  0
 14 15  1  0  0  0
 15 16  1  0  0  0
 16 17  2  0  0  0
 17 18  1  0  0  0
 18 19  1  0  0  0
 18 20  2  0  0  0
 20 21  1  0  0  0
 21 22  2  0  0  0
 20 30  1  0  0  0
 30 31  3  0  0  0
 13 23  1  0  0  0
 23 24  2  0  0  0
 24 27  1  0  0  0
 27 28  1  0  0  0
 24 25  1  0  0  0
 25 26  2  0  0  0
 26  2  1  0  0  0
  9  3  1  0  0  0
 26 10  1  0  0  0
 22 12  1  0  0  0
 22 16  1  0  0  0
 28 29  1  0  0  0
M  END
> <minimizedAffinity>
-4.27448

> <CNNscore>
0.4080258310

> <CNNaffinity>
5.5077691078

> <CNN_VS>
2.2473120689

> <CNNaffinity_variance>
0.3093544543

$$$$
[H]c1c(F)c(N([H])C([H])([H])C2=NC(=O)C(C([H])([H])[H])(C([H])([H])[H])OC2([H])[H])c(F)c([H])c1C#N


 22 23  0  0  0  0  0  0  0  0999 V2000
   36.0647  -16.8902   36.0165 N   0  0  0  0  0  0  0  0  0  0  0  0
   36.6110  -16.9379   35.1301 H   0  0  0  0  0  0  0  0  0  0  0  0
   35.4697  -15.6486   36.3736 C   0  0  0  0  0  0  0  0  0  0  0  0
   36.1770  -14.7141   37.1113 C   0  0  0  0  0  0  0  0  0  0  0  0
   37.4460  -15.0604   37.4595 F   0  0  0  0  0  0  0  0  0  0  0  0
   35.6601  -13.4986   37.4876 C   0  0  0  0  0  0  0  0  0  0  0  0
   34.3686  -13.2000   37.1073 C   0  0  0  0  0  0  0  0  0  0  0  0
   33.6503  -14.1261   36.3691 C   0  0  0  0  0  0  0  0  0  0  0  0
   34.1700  -15.3420   35.9939 C   0  0  0  0  0  0  0  0  0  0  0  0
   33.4659  -16.2529   35.2687 F   0  0  0  0  0  0  0  0  0  0  0  0
   33.8024  -11.9520   37.4792 C   0  0  0  0  0  0  0  0  0  0  0  0
   33.3446  -10.9360   37.7903 N   0  0  0  0  0  0  0  0  0  0  0  0
   35.9219  -18.0641   36.8550 C   0  0  0  0  0  0  0  0  0  0  0  0
   32.3000  -21.2811   34.2764 C   0  0  0  0  0  0  0  0  0  0  0  0
   32.6779  -19.9691   34.9751 C   0  0  0  0  0  0  0  0  0  0  0  0
   31.4140  -19.1041   34.9454 C   0  0  0  0  0  0  0  0  0  0  0  0
   33.6934  -19.3968   34.2635 O   0  0  0  0  0  0  0  0  0  0  0  0
   34.9105  -19.3383   34.8733 C   0  0  0  0  0  0  0  0  0  0  0  0
   34.8873  -18.9521   36.2834 C   0  0  0  0  0  0  0  0  0  0  0  0
   33.9354  -19.4069   37.0269 N   0  0  0  0  0  0  0  0  0  0  0  0
   32.9871  -20.2516   36.3958 C   0  0  0  0  0  0  0  0  0  0  0  0
   32.4311  -21.1874   36.9868 O   0  0  0  0  0  0  0  0  0  0  0  0
 14 15  1  0  0  0
 15 16  1  0  0  0
 15 17  1  0  0  0
 17 18  1  0  0  0
 18 19  1  0  0  0
 19 13  1  0  0  0
 13  1  1  0  0  0
  1  3  1  0  0  0
  3  4  2  0  0  0
  4  5  1  0  0  0
  4  6  1  0  0  0
  6  7  2  0  0  0
  7  8  1  0  0  0
  8  9  2  0  0  0
  9 10  1  0  0  0
  7 11  1  0  0  0
 11 12  3  0  0  0
 19 20  2  0  0  0
 20 21  1  0  0  0
 21 22  2  0  0  0
 21 15  1  0  0  0
  9  3  1  0  0  0
  1  2  1  0  0  0
M  END
> <minimizedAffinity>
-6.74933

> <CNNscore>
0.6762020588

> <CNNaffinity>
5.0409736633

> <CNN_VS>
3.4087166786

> <CNNaffinity_variance>
0.2415639609

$$$$
[H]c1c(F)c(N([H])C([H])([H])C2=NC(=O)C(C([H])([H])[H])(C([H])([H])[H])OC2([H])[H])c(F)c([H])c1C#N


 22 23  0  0  0  0  0  0  0  0999 V2000
   36.0156  -16.8359   35.9482 N   0  0  0  0  0  0  0  0  0  0  0  0
   36.4991  -16.8822   35.0260 H   0  0  0  0  0  0  0  0  0  0  0  0
   35.4625  -15.5904   36.3556 C   0  0  0  0  0  0  0  0  0  0  0  0
   34.1634  -15.2513   36.0167 C   0  0  0  0  0  0  0  0  0  0  0  0
   33.4745  -16.1700   35.2867 F   0  0  0  0  0  0  0  0  0  0  0  0
   33.5717  -14.0659   36.3788 C   0  0  0  0  0  0  0  0  0  0  0  0
   34.3165  -13.1715   37.1185 C   0  0  0  0  0  0  0  0  0  0  0  0
   35.6173  -13.4987   37.4642 C   0  0  0  0  0  0  0  0  0  0  0  0
   36.2071  -14.6857   37.1004 C   0  0  0  0  0  0  0  0  0  0  0  0
   37.4848  -15.0087   37.4390 F   0  0  0  0  0  0  0  0  0  0  0  0
   33.7362  -11.9361   37.5102 C   0  0  0  0  0  0  0  0  0  0  0  0
   33.2662  -10.9308   37.8376 N   0  0  0  0  0  0  0  0  0  0  0  0
   35.9156  -18.0156   36.7848 C   0  0  0  0  0  0  0  0  0  0  0  0
   32.2659  -21.2724   34.2968 C   0  0  0  0  0  0  0  0  0  0  0  0
   32.6431  -19.9620   34.9990 C   0  0  0  0  0  0  0  0  0  0  0  0
   31.3620  -19.1227   35.0273 C   0  0  0  0  0  0  0  0  0  0  0  0
   33.6201  -19.3600   34.2587 O   0  0  0  0  0  0  0  0  0  0  0  0
   34.8575  -19.2845   34.8243 C   0  0  0  0  0  0  0  0  0  0  0  0
   34.8786  -18.9171   36.2394 C   0  0  0  0  0  0  0  0  0  0  0  0
   33.9639  -19.4008   37.0109 N   0  0  0  0  0  0  0  0  0  0  0  0
   33.0100  -20.2564   36.4035 C   0  0  0  0  0  0  0  0  0  0  0  0
   32.4949  -21.2109   37.0016 O   0  0  0  0  0  0  0  0  0  0  0  0
 14 15  1  0  0  0
 15 16  1  0  0  0
 15 17  1  0  0  0
 17 18  1  0  0  0
 18 19  1  0  0  0
 19 13  1  0  0  0
 13  1  1  0  0  0
  1  3  1  0  0  0
  3  4  2  0  0  0
  4  5  1  0  0  0
  4  6  1  0  0  0
  6  7  2  0  0  0
  7  8  1  0  0  0
  8  9  2  0  0  0
  9 10  1  0  0  0
  7 11  1  0  0  0
 11 12  3  0  0  0
 19 20  2  0  0  0
 20 21  1  0  0  0
 21 22  2  0  0  0
 21 15  1  0  0  0
  9  3  1  0  0  0
  1  2  1  0  0  0
M  END
> <minimizedAffinity>
-6.75008

> <CNNscore>
0.6720852256

> <CNNaffinity>
5.0487184525

> <CNN_VS>
3.3931691647

> <CNNaffinity_variance>
0.2411393821

$$$$
[H]c1c(F)c(N([H])C([H])([H])C2=NC(=O)C(C([H])([H])[H])(C([H])([H])[H])OC2([H])[H])c(F)c([H])c1C#N


 22 23  0  0  0  0  0  0  0  0999 V2000
   32.7169  -19.8259   34.5417 N   0  0  0  0  0  0  0  0  0  0  0  0
   33.1239  -20.6440   34.0402 H   0  0  0  0  0  0  0  0  0  0  0  0
   33.6061  -18.9201   35.1834 C   0  0  0  0  0  0  0  0  0  0  0  0
   34.3738  -19.3299   36.2606 C   0  0  0  0  0  0  0  0  0  0  0  0
   34.2199  -20.6249   36.6490 F   0  0  0  0  0  0  0  0  0  0  0  0
   35.2500  -18.5051   36.9228 C   0  0  0  0  0  0  0  0  0  0  0  0
   35.3659  -17.2020   36.4864 C   0  0  0  0  0  0  0  0  0  0  0  0
   34.6035  -16.7795   35.4099 C   0  0  0  0  0  0  0  0  0  0  0  0
   33.7273  -17.6071   34.7491 C   0  0  0  0  0  0  0  0  0  0  0  0
   32.9776  -17.1938   33.6914 F   0  0  0  0  0  0  0  0  0  0  0  0
   36.2624  -16.3217   37.1479 C   0  0  0  0  0  0  0  0  0  0  0  0
   36.9885  -15.6056   37.6945 N   0  0  0  0  0  0  0  0  0  0  0  0
   31.2814  -19.6269   34.5777 C   0  0  0  0  0  0  0  0  0  0  0  0
   29.3745  -23.6261   37.8160 C   0  0  0  0  0  0  0  0  0  0  0  0
   29.2701  -22.7361   36.5712 C   0  0  0  0  0  0  0  0  0  0  0  0
   27.9889  -23.1734   35.8546 C   0  0  0  0  0  0  0  0  0  0  0  0
   30.3762  -22.9640   35.8034 O   0  0  0  0  0  0  0  0  0  0  0  0
   31.2644  -21.9369   35.6899 C   0  0  0  0  0  0  0  0  0  0  0  0
   30.6720  -20.6146   35.4935 C   0  0  0  0  0  0  0  0  0  0  0  0
   29.5950  -20.3240   36.1427 N   0  0  0  0  0  0  0  0  0  0  0  0
   29.0800  -21.3306   36.9985 C   0  0  0  0  0  0  0  0  0  0  0  0
   28.4949  -21.0688   38.0583 O   0  0  0  0  0  0  0  0  0  0  0  0
 14 15  1  0  0  0
 15 16  1  0  0  0
 15 17  1  0  0  0
 17 18  1  0  0  0
 18 19  1  0  0  0
 19 13  1  0  0  0
 13  1  1  0  0  0
  1  3  1  0  0  0
  3  4  2  0  0  0
  4  5  1  0  0  0
  4  6  1  0  0  0
  6  7  2  0  0  0
  7  8  1  0  0  0
  8  9  2  0  0  0
  9 10  1  0  0  0
  7 11  1  0  0  0
 11 12  3  0  0  0
 19 20  2  0  0  0
 20 21  1  0  0  0
 21 22  2  0  0  0
 21 15  1  0  0  0
  9  3  1  0  0  0
  1  2  1  0  0  0
M  END
> <minimizedAffinity>
-5.29831

> <CNNscore>
0.5771052837

> <CNNaffinity>
4.3503060341

> <CNN_VS>
2.5105845928

> <CNNaffinity_variance>
0.5667752028

$$$$
[H]c1c(F)c(N([H])C([H])([H])C2=NC(=O)C(C([H])([H])[H])(C([H])([H])[H])OC2([H])[H])c(F)c([H])c1C#N


 22 23  0  0  0  0  0  0  0  0999 V2000
   36.7162  -16.2914   35.7443 N   0  0  0  0  0  0  0  0  0  0  0  0
   36.9479  -16.3470   34.7296 H   0  0  0  0  0  0  0  0  0  0  0  0
   35.8497  -15.2510   36.1801 C   0  0  0  0  0  0  0  0  0  0  0  0
   36.3642  -14.0893   36.7309 C   0  0  0  0  0  0  0  0  0  0  0  0
   37.7200  -14.0177   36.8219 F   0  0  0  0  0  0  0  0  0  0  0  0
   35.5822  -13.0492   37.1703 C   0  0  0  0  0  0  0  0  0  0  0  0
   34.2139  -13.1756   37.0537 C   0  0  0  0  0  0  0  0  0  0  0  0
   33.6865  -14.3327   36.5045 C   0  0  0  0  0  0  0  0  0  0  0  0
   34.4715  -15.3721   36.0656 C   0  0  0  0  0  0  0  0  0  0  0  0
   33.9550  -16.5094   35.5258 F   0  0  0  0  0  0  0  0  0  0  0  0
   33.3751  -12.1195   37.4979 C   0  0  0  0  0  0  0  0  0  0  0  0
   32.6984  -11.2531   37.8587 N   0  0  0  0  0  0  0  0  0  0  0  0
   37.2682  -17.2539   36.6772 C   0  0  0  0  0  0  0  0  0  0  0  0
   34.0712  -21.7124   36.5437 C   0  0  0  0  0  0  0  0  0  0  0  0
   34.2654  -20.1921   36.4849 C   0  0  0  0  0  0  0  0  0  0  0  0
   32.8658  -19.6024   36.2863 C   0  0  0  0  0  0  0  0  0  0  0  0
   35.0798  -19.9180   35.4234 O   0  0  0  0  0  0  0  0  0  0  0  0
   36.3194  -19.4319   35.7129 C   0  0  0  0  0  0  0  0  0  0  0  0
   36.3657  -18.4214   36.7687 C   0  0  0  0  0  0  0  0  0  0  0  0
   35.5947  -18.5707   37.7929 N   0  0  0  0  0  0  0  0  0  0  0  0
   34.7625  -19.7188   37.7974 C   0  0  0  0  0  0  0  0  0  0  0  0
   34.4530  -20.3132   38.8391 O   0  0  0  0  0  0  0  0  0  0  0  0
 14 15  1  0  0  0
 15 16  1  0  0  0
 15 17  1  0  0  0
 17 18  1  0  0  0
 18 19  1  0  0  0
 19 13  1  0  0  0
 13  1  1  0  0  0
  1  3  1  0  0  0
  3  4  2  0  0  0
  4  5  1  0  0  0
  4  6  1  0  0  0
  6  7  2  0  0  0
  7  8  1  0  0  0
  8  9  2  0  0  0
  9 10  1  0  0  0
  7 11  1  0  0  0
 11 12  3  0  0  0
 19 20  2  0  0  0
 20 21  1  0  0  0
 21 22  2  0  0  0
 21 15  1  0  0  0
  9  3  1  0  0  0
  1  2  1  0  0  0
M  END
> <minimizedAffinity>
-6.18479

> <CNNscore>
0.5268862247

> <CNNaffinity>
4.8395128250

> <CNN_VS>
2.5498726368

> <CNNaffinity_variance>
0.2927141190

$$$$
[H]c1c(F)c(N([H])C([H])([H])C2=NC(=O)C(C([H])([H])[H])(C([H])([H])[H])OC2([H])[H])c(F)c([H])c1C#N


 22 23  0  0  0  0  0  0  0  0999 V2000
   32.2567  -19.6814   33.8175 N   0  0  0  0  0  0  0  0  0  0  0  0
   31.9199  -18.9856   33.1183 H   0  0  0  0  0  0  0  0  0  0  0  0
   31.2877  -20.4239   34.5475 C   0  0  0  0  0  0  0  0  0  0  0  0
   30.1920  -19.7911   35.1104 C   0  0  0  0  0  0  0  0  0  0  0  0
   30.1124  -18.4463   34.9195 F   0  0  0  0  0  0  0  0  0  0  0  0
   29.2226  -20.4503   35.8260 C   0  0  0  0  0  0  0  0  0  0  0  0
   29.3539  -21.8135   35.9883 C   0  0  0  0  0  0  0  0  0  0  0  0
   30.4453  -22.4585   35.4302 C   0  0  0  0  0  0  0  0  0  0  0  0
   31.4142  -21.7963   34.7146 C   0  0  0  0  0  0  0  0  0  0  0  0
   32.4869  -22.4283   34.1657 F   0  0  0  0  0  0  0  0  0  0  0  0
   28.3699  -22.5269   36.7226 C   0  0  0  0  0  0  0  0  0  0  0  0
   27.5636  -23.1097   37.3133 N   0  0  0  0  0  0  0  0  0  0  0  0
   33.6768  -19.8787   34.0318 C   0  0  0  0  0  0  0  0  0  0  0  0
   36.3250  -15.3544   35.6548 C   0  0  0  0  0  0  0  0  0  0  0  0
   35.7516  -16.7504   35.9280 C   0  0  0  0  0  0  0  0  0  0  0  0
   36.0752  -17.0522   37.3945 C   0  0  0  0  0  0  0  0  0  0  0  0
   36.3744  -17.6275   35.0868 O   0  0  0  0  0  0  0  0  0  0  0  0
   35.6061  -18.1921   34.1133 C   0  0  0  0  0  0  0  0  0  0  0  0
   34.2753  -18.6249   34.5371 C   0  0  0  0  0  0  0  0  0  0  0  0
   33.6268  -17.8824   35.3702 N   0  0  0  0  0  0  0  0  0  0  0  0
   34.2766  -16.6984   35.8024 C   0  0  0  0  0  0  0  0  0  0  0  0
   33.6587  -15.6584   36.0681 O   0  0  0  0  0  0  0  0  0  0  0  0
 14 15  1  0  0  0
 15 16  1  0  0  0
 15 17  1  0  0  0
 17 18  1  0  0  0
 18 19  1  0  0  0
 19 13  1  0  0  0
 13  1  1  0  0  0
  1  3  1  0  0  0
  3  4  2  0  0  0
  4  5  1  0  0  0
  4  6  1  0  0  0
  6  7  2  0  0  0
  7  8  1  0  0  0
  8  9  2  0  0  0
  9 10  1  0  0  0
  7 11  1  0  0  0
 11 12  3  0  0  0
 19 20  2  0  0  0
 20 21  1  0  0  0
 21 22  2  0  0  0
 21 15  1  0  0  0
  9  3  1  0  0  0
  1  2  1  0  0  0
M  END
> <minimizedAffinity>
-5.49748

> <CNNscore>
0.5240157247

> <CNNaffinity>
4.6123628616

> <CNN_VS>
2.4169507027

> <CNNaffinity_variance>
0.4214931130

$$$$
[H]c1c(F)c(N([H])C([H])([H])C2=NC(=O)C(C([H])([H])[H])(C([H])([H])[H])OC2([H])[H])c(F)c([H])c1C#N


 22 23  0  0  0  0  0  0  0  0999 V2000
   33.8881  -18.0061   35.5954 N   0  0  0  0  0  0  0  0  0  0  0  0
   32.8919  -17.7213   35.4820 H   0  0  0  0  0  0  0  0  0  0  0  0
   34.8156  -17.0354   36.0649 C   0  0  0  0  0  0  0  0  0  0  0  0
   34.5267  -15.6839   35.9771 C   0  0  0  0  0  0  0  0  0  0  0  0
   33.3255  -15.3617   35.4250 F   0  0  0  0  0  0  0  0  0  0  0  0
   35.3788  -14.6982   36.4116 C   0  0  0  0  0  0  0  0  0  0  0  0
   36.5831  -15.0820   36.9631 C   0  0  0  0  0  0  0  0  0  0  0  0
   36.8842  -16.4308   37.0567 C   0  0  0  0  0  0  0  0  0  0  0  0
   36.0297  -17.4152   36.6209 C   0  0  0  0  0  0  0  0  0  0  0  0
   36.3238  -18.7406   36.7121 F   0  0  0  0  0  0  0  0  0  0  0  0
   37.4882  -14.0891   37.4228 C   0  0  0  0  0  0  0  0  0  0  0  0
   38.2264  -13.2770   37.7891 N   0  0  0  0  0  0  0  0  0  0  0  0
   34.3057  -19.3580   35.2799 C   0  0  0  0  0  0  0  0  0  0  0  0
   30.0896  -22.8651   35.4848 C   0  0  0  0  0  0  0  0  0  0  0  0
   30.6616  -21.4427   35.5286 C   0  0  0  0  0  0  0  0  0  0  0  0
   29.4576  -20.5172   35.7291 C   0  0  0  0  0  0  0  0  0  0  0  0
   31.2814  -21.2069   34.3348 O   0  0  0  0  0  0  0  0  0  0  0  0
   32.6374  -21.0763   34.3646 C   0  0  0  0  0  0  0  0  0  0  0  0
   33.1664  -20.2805   35.4713 C   0  0  0  0  0  0  0  0  0  0  0  0
   32.6127  -20.4008   36.6310 N   0  0  0  0  0  0  0  0  0  0  0  0
   31.5266  -21.3079   36.7235 C   0  0  0  0  0  0  0  0  0  0  0  0
   31.2939  -21.9665   37.7463 O   0  0  0  0  0  0  0  0  0  0  0  0
 14 15  1  0  0  0
 15 16  1  0  0  0
 15 17  1  0  0  0
 17 18  1  0  0  0
 18 19  1  0  0  0
 19 13  1  0  0  0
 13  1  1  0  0  0
  1  3  1  0  0  0
  3  4  2  0  0  0
  4  5  1  0  0  0
  4  6  1  0  0  0
  6  7  2  0  0  0
  7  8  1  0  0  0
  8  9  2  0  0  0
  9 10  1  0  0  0
  7 11  1  0  0  0
 11 12  3  0  0  0
 19 20  2  0  0  0
 20 21  1  0  0  0
 21 22  2  0  0  0
 21 15  1  0  0  0
  9  3  1  0  0  0
  1  2  1  0  0  0
M  END
> <minimizedAffinity>
-6.06639

> <CNNscore>
0.5095531940

> <CNNaffinity>
4.4397802353

> <CNN_VS>
2.2623043060

> <CNNaffinity_variance>
0.4850702882

$$$$
[H]c1c(F)c(N([H])C([H])([H])C2=NC(=O)C(C([H])([H])[H])(C([H])([H])[H])OC2([H])[H])c(F)c([H])c1C#N


 22 23  0  0  0  0  0  0  0  0999 V2000
   36.0227  -16.8066   35.8706 N   0  0  0  0  0  0  0  0  0  0  0  0
   37.0614  -16.8907   35.8896 H   0  0  0  0  0  0  0  0  0  0  0  0
   35.4414  -15.5670   36.2559 C   0  0  0  0  0  0  0  0  0  0  0  0
   36.1659  -14.6487   36.9973 C   0  0  0  0  0  0  0  0  0  0  0  0
   37.4376  -15.0084   37.3207 F   0  0  0  0  0  0  0  0  0  0  0  0
   35.6627  -13.4360   37.4004 C   0  0  0  0  0  0  0  0  0  0  0  0
   34.3676  -13.1232   37.0444 C   0  0  0  0  0  0  0  0  0  0  0  0
   33.6322  -14.0330   36.3028 C   0  0  0  0  0  0  0  0  0  0  0  0
   34.1381  -15.2462   35.9009 C   0  0  0  0  0  0  0  0  0  0  0  0
   33.4171  -16.1412   35.1724 F   0  0  0  0  0  0  0  0  0  0  0  0
   33.8154  -11.8777   37.4442 C   0  0  0  0  0  0  0  0  0  0  0  0
   33.3723  -10.8614   37.7755 N   0  0  0  0  0  0  0  0  0  0  0  0
   35.2025  -17.9294   35.4606 C   0  0  0  0  0  0  0  0  0  0  0  0
   35.1243  -21.2370   39.8390 C   0  0  0  0  0  0  0  0  0  0  0  0
   35.3541  -20.9880   38.3432 C   0  0  0  0  0  0  0  0  0  0  0  0
   35.7815  -22.3378   37.7586 C   0  0  0  0  0  0  0  0  0  0  0  0
   36.3439  -20.0546   38.2245 O   0  0  0  0  0  0  0  0  0  0  0  0
   35.9819  -18.8386   37.7277 C   0  0  0  0  0  0  0  0  0  0  0  0
   35.0648  -18.8741   36.5895 C   0  0  0  0  0  0  0  0  0  0  0  0
   34.1226  -19.7562   36.5900 N   0  0  0  0  0  0  0  0  0  0  0  0
   34.0651  -20.6211   37.7123 C   0  0  0  0  0  0  0  0  0  0  0  0
   32.9975  -21.0611   38.1603 O   0  0  0  0  0  0  0  0  0  0  0  0
 14 15  1  0  0  0
 15 16  1  0  0  0
 15 17  1  0  0  0
 17 18  1  0  0  0
 18 19  1  0  0  0
 19 13  1  0  0  0
 13  1  1  0  0  0
  1  3  1  0  0  0
  3  4  2  0  0  0
  4  5  1  0  0  0
  4  6  1  0  0  0
  6  7  2  0  0  0
  7  8  1  0  0  0
  8  9  2  0  0  0
  9 10  1  0  0  0
  7 11  1  0  0  0
 11 12  3  0  0  0
 19 20  2  0  0  0
 20 21  1  0  0  0
 21 22  2  0  0  0
 21 15  1  0  0  0
  9  3  1  0  0  0
  1  2  1  0  0  0
M  END
> <minimizedAffinity>
-6.12230

> <CNNscore>
0.4724164605

> <CNNaffinity>
4.7195043564

> <CNN_VS>
2.2295715809

> <CNNaffinity_variance>
0.2300788462

$$$$
[H]c1c(F)c(N([H])C([H])([H])C2=NC(=O)C(C([H])([H])[H])(C([H])([H])[H])OC2([H])[H])c(F)c([H])c1C#N


 22 23  0  0  0  0  0  0  0  0999 V2000
   32.2789  -18.2428   35.5441 N   0  0  0  0  0  0  0  0  0  0  0  0
   32.1193  -17.5633   36.3181 H   0  0  0  0  0  0  0  0  0  0  0  0
   31.5567  -19.4680   35.5653 C   0  0  0  0  0  0  0  0  0  0  0  0
   32.1589  -20.6338   36.0078 C   0  0  0  0  0  0  0  0  0  0  0  0
   33.4545  -20.5249   36.4092 F   0  0  0  0  0  0  0  0  0  0  0  0
   31.5170  -21.8472   36.0528 C   0  0  0  0  0  0  0  0  0  0  0  0
   30.2041  -21.8995   35.6339 C   0  0  0  0  0  0  0  0  0  0  0  0
   29.5901  -20.7404   35.1889 C   0  0  0  0  0  0  0  0  0  0  0  0
   30.2349  -19.5273   35.1448 C   0  0  0  0  0  0  0  0  0  0  0  0
   29.6332  -18.3877   34.7081 F   0  0  0  0  0  0  0  0  0  0  0  0
   29.5098  -23.1377   35.6670 C   0  0  0  0  0  0  0  0  0  0  0  0
   28.9477  -24.1488   35.6862 N   0  0  0  0  0  0  0  0  0  0  0  0
   33.2143  -17.9368   34.4796 C   0  0  0  0  0  0  0  0  0  0  0  0
   38.4229  -18.6524   36.0528 C   0  0  0  0  0  0  0  0  0  0  0  0
   36.9148  -18.8328   36.2658 C   0  0  0  0  0  0  0  0  0  0  0  0
   36.7708  -19.6050   37.5809 C   0  0  0  0  0  0  0  0  0  0  0  0
   36.4284  -19.5480   35.2091 O   0  0  0  0  0  0  0  0  0  0  0  0
   35.5912  -18.8904   34.3586 C   0  0  0  0  0  0  0  0  0  0  0  0
   34.5955  -18.0317   34.9982 C   0  0  0  0  0  0  0  0  0  0  0  0
   34.9504  -17.3510   36.0358 N   0  0  0  0  0  0  0  0  0  0  0  0
   36.2938  -17.5027   36.4639 C   0  0  0  0  0  0  0  0  0  0  0  0
   36.9362  -16.5791   36.9820 O   0  0  0  0  0  0  0  0  0  0  0  0
 14 15  1  0  0  0
 15 16  1  0  0  0
 15 17  1  0  0  0
 17 18  1  0  0  0
 18 19  1  0  0  0
 19 13  1  0  0  0
 13  1  1  0  0  0
  1  3  1  0  0  0
  3  4  2  0  0  0
  4  5  1  0  0  0
  4  6  1  0  0  0
  6  7  2  0  0  0
  7  8  1  0  0  0
  8  9  2  0  0  0
  9 10  1  0  0  0
  7 11  1  0  0  0
 11 12  3  0  0  0
 19 20  2  0  0  0
 20 21  1  0  0  0
 21 22  2  0  0  0
 21 15  1  0  0  0
  9  3  1  0  0  0
  1  2  1  0  0  0
M  END
> <minimizedAffinity>
-5.24793

> <CNNscore>
0.4660538435

> <CNNaffinity>
4.4502148628

> <CNN_VS>
2.0740396976

> <CNNaffinity_variance>
0.4222469330

$$$$
[H]c1c(F)c(N([H])C([H])([H])C2=NC(=O)C(C([H])([H])[H])(C([H])([H])[H])OC2([H])[H])c(F)c([H])c1C#N


 22 23  0  0  0  0  0  0  0  0999 V2000
   32.6017  -19.6005   35.9072 N   0  0  0  0  0  0  0  0  0  0  0  0
   32.2725  -19.0858   36.7517 H   0  0  0  0  0  0  0  0  0  0  0  0
   33.9251  -19.3586   35.4457 C   0  0  0  0  0  0  0  0  0  0  0  0
   34.1498  -18.5668   34.3320 C   0  0  0  0  0  0  0  0  0  0  0  0
   33.0440  -18.0520   33.7289 F   0  0  0  0  0  0  0  0  0  0  0  0
   35.4016  -18.2954   33.8365 C   0  0  0  0  0  0  0  0  0  0  0  0
   36.4870  -18.8435   34.4874 C   0  0  0  0  0  0  0  0  0  0  0  0
   36.2759  -19.6373   35.6027 C   0  0  0  0  0  0  0  0  0  0  0  0
   35.0218  -19.9075   36.0964 C   0  0  0  0  0  0  0  0  0  0  0  0
   34.8127  -20.6871   37.1918 F   0  0  0  0  0  0  0  0  0  0  0  0
   37.7959  -18.5835   34.0024 C   0  0  0  0  0  0  0  0  0  0  0  0
   38.8631  -18.3647   33.6126 N   0  0  0  0  0  0  0  0  0  0  0  0
   31.7254  -20.5354   35.2292 C   0  0  0  0  0  0  0  0  0  0  0  0
   28.1360  -22.5563   38.8555 C   0  0  0  0  0  0  0  0  0  0  0  0
   28.6406  -22.3731   37.4187 C   0  0  0  0  0  0  0  0  0  0  0  0
   27.6540  -23.1386   36.5316 C   0  0  0  0  0  0  0  0  0  0  0  0
   29.8958  -22.9065   37.3479 O   0  0  0  0  0  0  0  0  0  0  0  0
   30.9219  -22.0321   37.1496 C   0  0  0  0  0  0  0  0  0  0  0  0
   30.6698  -20.9833   36.1625 C   0  0  0  0  0  0  0  0  0  0  0  0
   29.4949  -20.4507   36.1218 N   0  0  0  0  0  0  0  0  0  0  0  0
   28.5445  -20.9410   37.0532 C   0  0  0  0  0  0  0  0  0  0  0  0
   27.6664  -20.2223   37.5498 O   0  0  0  0  0  0  0  0  0  0  0  0
 14 15  1  0  0  0
 15 16  1  0  0  0
 15 17  1  0  0  0
 17 18  1  0  0  0
 18 19  1  0  0  0
 19 13  1  0  0  0
 13  1  1  0  0  0
  1  3  1  0  0  0
  3  4  2  0  0  0
  4  5  1  0  0  0
  4  6  1  0  0  0
  6  7  2  0  0  0
  7  8  1  0  0  0
  8  9  2  0  0  0
  9 10  1  0  0  0
  7 11  1  0  0  0
 11 12  3  0  0  0
 19 20  2  0  0  0
 20 21  1  0  0  0
 21 22  2  0  0  0
 21 15  1  0  0  0
  9  3  1  0  0  0
  1  2  1  0  0  0
M  END
> <minimizedAffinity>
-4.90520

> <CNNscore>
0.4574731588

> <CNNaffinity>
4.2095322609

> <CNN_VS>
1.9257479906

> <CNNaffinity_variance>
0.3138389587

$$$$
[H]C1=C(c2c([H])c(C#N)c(N([H])c3c([H])c([H])c(C4([H])c5c([H])c(OC(F)(F)F)c([H])c([H])c5OC(C([H])([H])[H])(C([H])([H])[H])C4([H])[H])c(C#N)c3[H])c([H])c2Cl)C([H])([H])C([H])([H])C(C([H])([H])[H])(C([H])([H])[H])C1([H])[H]


 44 48  0  0  0  0  0  0  0  0999 V2000
   35.4798  -20.2140   36.8662 C   0  0  0  0  0  0  0  0  0  0  0  0
   36.0030  -20.4252   38.1139 C   0  0  0  0  0  0  0  0  0  0  0  0
   35.6070  -21.4991   38.8650 C   0  0  0  0  0  0  0  0  0  0  0  0
   34.6671  -22.4461   38.4430 C   0  0  0  0  0  0  0  0  0  0  0  0
   34.1453  -22.2289   37.1877 C   0  0  0  0  0  0  0  0  0  0  0  0
   34.5395  -21.1435   36.4183 C   0  0  0  0  0  0  0  0  0  0  0  0
   34.3157  -23.5667   39.3130 C   0  0  0  0  0  0  0  0  0  0  0  0
   33.4988  -23.1873   40.4987 C   0  0  0  0  0  0  0  0  0  0  0  0
   33.3531  -24.3472   41.4665 C   0  0  0  0  0  0  0  0  0  0  0  0
   32.5625  -25.4275   40.7281 C   0  0  0  0  0  0  0  0  0  0  0  0
   32.5973  -23.8757   42.6917 C   0  0  0  0  0  0  0  0  0  0  0  0
   34.6094  -24.8549   41.8378 O   0  0  0  0  0  0  0  0  0  0  0  0
   35.5763  -25.0689   40.8803 C   0  0  0  0  0  0  0  0  0  0  0  0
   36.6508  -25.8872   41.1439 C   0  0  0  0  0  0  0  0  0  0  0  0
   37.5937  -26.0708   40.1575 C   0  0  0  0  0  0  0  0  0  0  0  0
   37.5316  -25.4832   38.9111 C   0  0  0  0  0  0  0  0  0  0  0  0
   36.4181  -24.6663   38.7083 C   0  0  0  0  0  0  0  0  0  0  0  0
   35.4593  -24.4580   39.6619 C   0  0  0  0  0  0  0  0  0  0  0  0
   38.4991  -25.6883   37.9366 O   0  0  0  0  0  0  0  0  0  0  0  0
   39.0866  -24.5025   37.3933 C   0  0  0  0  0  0  0  0  0  0  0  0
   38.2423  -23.9554   36.4467 F   0  0  0  0  0  0  0  0  0  0  0  0
   40.3019  -24.8460   36.8093 F   0  0  0  0  0  0  0  0  0  0  0  0
   39.3360  -23.5560   38.3578 F   0  0  0  0  0  0  0  0  0  0  0  0
   35.7968  -19.1155   36.0295 N   0  0  0  0  0  0  0  0  0  0  0  0
   36.3616  -19.3683   35.1525 H   0  0  0  0  0  0  0  0  0  0  0  0
   34.6328  -15.0756   36.5703 C   0  0  0  0  0  0  0  0  0  0  0  0
   33.8890  -16.0018   35.8318 C   0  0  0  0  0  0  0  0  0  0  0  0
   34.2819  -17.3161   35.6489 C   0  0  0  0  0  0  0  0  0  0  0  0
   35.4630  -17.7691   36.2097 C   0  0  0  0  0  0  0  0  0  0  0  0
   36.2102  -16.8776   36.9396 C   0  0  0  0  0  0  0  0  0  0  0  0
   35.7943  -15.5409   37.1160 C   0  0  0  0  0  0  0  0  0  0  0  0
   36.8351  -14.5368   38.0793 Cl  0  0  0  0  0  0  0  0  0  0  0  0
   32.3803   -9.8866   37.5652 C   0  0  0  0  0  0  0  0  0  0  0  0
   33.0018  -11.2713   37.5604 C   0  0  0  0  0  0  0  0  0  0  0  0
   32.8636  -11.8396   38.9339 C   0  0  0  0  0  0  0  0  0  0  0  0
   34.4037  -11.2365   37.0708 C   0  0  0  0  0  0  0  0  0  0  0  0
   35.0213  -12.6244   37.1624 C   0  0  0  0  0  0  0  0  0  0  0  0
   34.1091  -13.7000   36.7327 C   0  0  0  0  0  0  0  0  0  0  0  0
   32.8300  -13.4515   36.4664 C   0  0  0  0  0  0  0  0  0  0  0  0
   32.1851  -12.1081   36.5645 C   0  0  0  0  0  0  0  0  0  0  0  0
   33.4367  -18.1878   34.8676 C   0  0  0  0  0  0  0  0  0  0  0  0
   32.7422  -18.8763   34.2288 N   0  0  0  0  0  0  0  0  0  0  0  0
   33.1629  -23.1480   36.6895 C   0  0  0  0  0  0  0  0  0  0  0  0
   32.3582  -23.8882   36.2598 N   0  0  0  0  0  0  0  0  0  0  0  0
 33 34  1  0  0  0
 34 35  1  0  0  0
 34 36  1  0  0  0
 36 37  1  0  0  0
 37 38  1  0  0  0
 38 39  2  0  0  0
 39 40  1  0  0  0
 38 26  1  0  0  0
 26 27  2  0  0  0
 27 28  1  0  0  0
 28 41  1  0  0  0
 41 42  3  0  0  0
 28 29  2  0  0  0
 29 24  1  0  0  0
 24  1  1  0  0  0
  1  2  2  0  0  0
  2  3  1  0  0  0
  3  4  2  0  0  0
  4  5  1  0  0  0
  5  6  2  0  0  0
  5 43  1  0  0  0
 43 44  3  0  0  0
  4  7  1  0  0  0
  7  8  1  0  0  0
  8  9  1  0  0  0
  9 10  1  0  0  0
  9 11  1  0  0  0
  9 12  1  0  0  0
 12 13  1  0  0  0
 13 14  2  0  0  0
 14 15  1  0  0  0
 15 16  2  0  0  0
 16 19  1  0  0  0
 19 20  1  0  0  0
 20 21  1  0  0  0
 20 22  1  0  0  0
 20 23  1  0  0  0
 16 17  1  0  0  0
 17 18  2  0  0  0
 29 30  1  0  0  0
 30 31  2  0  0  0
 31 32  1  0  0  0
 40 34  1  0  0  0
 31 26  1  0  0  0
  6  1  1  0  0  0
 18  7  1  0  0  0
 18 13  1  0  0  0
 24 25  1  0  0  0
M  END
> <minimizedAffinity>
-5.63596

> <CNNscore>
0.3007564545

> <CNNaffinity>
6.7687020302

> <CNN_VS>
2.0357308388

> <CNNaffinity_variance>
0.3225340247

$$$$
[H]C1=C(c2c([H])c(C#N)c(N([H])c3c([H])c([H])c(C4([H])c5c([H])c(OC(F)(F)F)c([H])c([H])c5OC(C([H])([H])[H])(C([H])([H])[H])C4([H])[H])c(C#N)c3[H])c([H])c2Cl)C([H])([H])C([H])([H])C(C([H])([H])[H])(C([H])([H])[H])C1([H])[H]


 44 48  0  0  0  0  0  0  0  0999 V2000
   36.2066  -19.9861   37.0664 C   0  0  0  0  0  0  0  0  0  0  0  0
   35.7816  -19.8700   38.3630 C   0  0  0  0  0  0  0  0  0  0  0  0
   35.7133  -20.9686   39.1769 C   0  0  0  0  0  0  0  0  0  0  0  0
   36.0596  -22.2637   38.7753 C   0  0  0  0  0  0  0  0  0  0  0  0
   36.4867  -22.3740   37.4712 C   0  0  0  0  0  0  0  0  0  0  0  0
   36.5594  -21.2670   36.6377 C   0  0  0  0  0  0  0  0  0  0  0  0
   35.9633  -23.3737   39.7212 C   0  0  0  0  0  0  0  0  0  0  0  0
   34.5981  -23.5876   40.2759 C   0  0  0  0  0  0  0  0  0  0  0  0
   34.6099  -24.6037   41.4031 C   0  0  0  0  0  0  0  0  0  0  0  0
   35.0335  -25.9338   40.7796 C   0  0  0  0  0  0  0  0  0  0  0  0
   33.2166  -24.7078   41.9883 C   0  0  0  0  0  0  0  0  0  0  0  0
   35.5287  -24.2386   42.4013 O   0  0  0  0  0  0  0  0  0  0  0  0
   36.7886  -23.8046   42.0526 C   0  0  0  0  0  0  0  0  0  0  0  0
   37.8054  -23.7951   42.9798 C   0  0  0  0  0  0  0  0  0  0  0  0
   39.0482  -23.3515   42.5868 C   0  0  0  0  0  0  0  0  0  0  0  0
   39.3439  -22.9120   41.3133 C   0  0  0  0  0  0  0  0  0  0  0  0
   38.2701  -22.9471   40.4222 C   0  0  0  0  0  0  0  0  0  0  0  0
   37.0206  -23.3806   40.7728 C   0  0  0  0  0  0  0  0  0  0  0  0
   40.6084  -22.4703   40.9474 O   0  0  0  0  0  0  0  0  0  0  0  0
   40.7439  -21.0552   40.7877 C   0  0  0  0  0  0  0  0  0  0  0  0
   40.3510  -20.6899   39.5147 F   0  0  0  0  0  0  0  0  0  0  0  0
   42.0785  -20.7190   40.9918 F   0  0  0  0  0  0  0  0  0  0  0  0
   39.9896  -20.3540   41.6975 F   0  0  0  0  0  0  0  0  0  0  0  0
   36.2767  -18.9186   36.1376 N   0  0  0  0  0  0  0  0  0  0  0  0
   36.7357  -19.1694   35.2003 H   0  0  0  0  0  0  0  0  0  0  0  0
   34.7560  -14.9913   36.6188 C   0  0  0  0  0  0  0  0  0  0  0  0
   34.0910  -15.9956   35.9077 C   0  0  0  0  0  0  0  0  0  0  0  0
   34.5999  -17.2721   35.7440 C   0  0  0  0  0  0  0  0  0  0  0  0
   35.8238  -17.6048   36.2972 C   0  0  0  0  0  0  0  0  0  0  0  0
   36.4951  -16.6349   37.0003 C   0  0  0  0  0  0  0  0  0  0  0  0
   35.9613  -15.3383   37.1574 C   0  0  0  0  0  0  0  0  0  0  0  0
   36.9174  -14.2250   38.0879 Cl  0  0  0  0  0  0  0  0  0  0  0  0
   32.0443  -10.0129   37.5415 C   0  0  0  0  0  0  0  0  0  0  0  0
   32.7861  -11.3370   37.5561 C   0  0  0  0  0  0  0  0  0  0  0  0
   32.6875  -11.9015   38.9345 C   0  0  0  0  0  0  0  0  0  0  0  0
   34.1834  -11.1828   37.0765 C   0  0  0  0  0  0  0  0  0  0  0  0
   34.9208  -12.5095   37.1874 C   0  0  0  0  0  0  0  0  0  0  0  0
   34.1111  -13.6660   36.7627 C   0  0  0  0  0  0  0  0  0  0  0  0
   32.8172  -13.5346   36.4843 C   0  0  0  0  0  0  0  0  0  0  0  0
   32.0550  -12.2528   36.5632 C   0  0  0  0  0  0  0  0  0  0  0  0
   33.8286  -18.2322   34.9903 C   0  0  0  0  0  0  0  0  0  0  0  0
   33.1881  -18.9961   34.3814 N   0  0  0  0  0  0  0  0  0  0  0  0
   36.8451  -23.6729   36.9789 C   0  0  0  0  0  0  0  0  0  0  0  0
   37.1176  -24.7459   36.5857 N   0  0  0  0  0  0  0  0  0  0  0  0
 33 34  1  0  0  0
 34 35  1  0  0  0
 34 36  1  0  0  0
 36 37  1  0  0  0
 37 38  1  0  0  0
 38 39  2  0  0  0
 39 40  1  0  0  0
 38 26  1  0  0  0
 26 27  2  0  0  0
 27 28  1  0  0  0
 28 41  1  0  0  0
 41 42  3  0  0  0
 28 29  2  0  0  0
 29 24  1  0  0  0
 24  1  1  0  0  0
  1  2  2  0  0  0
  2  3  1  0  0  0
  3  4  2  0  0  0
  4  5  1  0  0  0
  5  6  2  0  0  0
  5 43  1  0  0  0
 43 44  3  0  0  0
  4  7  1  0  0  0
  7  8  1  0  0  0
  8  9  1  0  0  0
  9 10  1  0  0  0
  9 11  1  0  0  0
  9 12  1  0  0  0
 12 13  1  0  0  0
 13 14  2  0  0  0
 14 15  1  0  0  0
 15 16  2  0  0  0
 16 19  1  0  0  0
 19 20  1  0  0  0
 20 21  1  0  0  0
 20 22  1  0  0  0
 20 23  1  0  0  0
 16 17  1  0  0  0
 17 18  2  0  0  0
 29 30  1  0  0  0
 30 31  2  0  0  0
 31 32  1  0  0  0
 40 34  1  0  0  0
 31 26  1  0  0  0
  6  1  1  0  0  0
 18  7  1  0  0  0
 18 13  1  0  0  0
 24 25  1  0  0  0
M  END
> <minimizedAffinity>
-6.10928

> <CNNscore>
0.2682225108

> <CNNaffinity>
6.7525300980

> <CNN_VS>
1.8111805916

> <CNNaffinity_variance>
0.0752644986

$$$$
[H]C1=C(c2c([H])c(C#N)c(N([H])c3c([H])c([H])c(C4([H])c5c([H])c(OC(F)(F)F)c([H])c([H])c5OC(C([H])([H])[H])(C([H])([H])[H])C4([H])[H])c(C#N)c3[H])c([H])c2Cl)C([H])([H])C([H])([H])C(C([H])([H])[H])(C([H])([H])[H])C1([H])[H]


 44 48  0  0  0  0  0  0  0  0999 V2000
   36.5606  -20.0425   38.1604 C   0  0  0  0  0  0  0  0  0  0  0  0
   37.4151  -19.2941   37.3956 C   0  0  0  0  0  0  0  0  0  0  0  0
   38.7664  -19.5075   37.4454 C   0  0  0  0  0  0  0  0  0  0  0  0
   39.3774  -20.4749   38.2514 C   0  0  0  0  0  0  0  0  0  0  0  0
   38.5133  -21.2245   39.0173 C   0  0  0  0  0  0  0  0  0  0  0  0
   37.1421  -21.0162   38.9746 C   0  0  0  0  0  0  0  0  0  0  0  0
   40.8299  -20.6354   38.2285 C   0  0  0  0  0  0  0  0  0  0  0  0
   41.5245  -20.0877   39.4262 C   0  0  0  0  0  0  0  0  0  0  0  0
   43.0311  -20.0903   39.2437 C   0  0  0  0  0  0  0  0  0  0  0  0
   43.4497  -21.5569   39.1376 C   0  0  0  0  0  0  0  0  0  0  0  0
   43.6754  -19.4369   40.4489 C   0  0  0  0  0  0  0  0  0  0  0  0
   43.3979  -19.4106   38.0702 O   0  0  0  0  0  0  0  0  0  0  0  0
   42.7117  -19.6401   36.8980 C   0  0  0  0  0  0  0  0  0  0  0  0
   43.2609  -19.2866   35.6868 C   0  0  0  0  0  0  0  0  0  0  0  0
   42.5383  -19.5336   34.5411 C   0  0  0  0  0  0  0  0  0  0  0  0
   41.2887  -20.1174   34.5274 C   0  0  0  0  0  0  0  0  0  0  0  0
   40.7893  -20.4517   35.7873 C   0  0  0  0  0  0  0  0  0  0  0  0
   41.4753  -20.2232   36.9488 C   0  0  0  0  0  0  0  0  0  0  0  0
   40.5845  -20.3537   33.3544 O   0  0  0  0  0  0  0  0  0  0  0  0
   39.2847  -19.7601   33.2864 C   0  0  0  0  0  0  0  0  0  0  0  0
   38.9905  -19.4305   31.9776 F   0  0  0  0  0  0  0  0  0  0  0  0
   39.2853  -18.6168   34.0793 F   0  0  0  0  0  0  0  0  0  0  0  0
   38.3039  -20.5989   33.7584 F   0  0  0  0  0  0  0  0  0  0  0  0
   35.1548  -19.8736   38.2066 N   0  0  0  0  0  0  0  0  0  0  0  0
   34.8228  -19.0371   38.7916 H   0  0  0  0  0  0  0  0  0  0  0  0
   32.0925  -22.2339   36.4688 C   0  0  0  0  0  0  0  0  0  0  0  0
   32.4365  -22.2898   37.8235 C   0  0  0  0  0  0  0  0  0  0  0  0
   33.4463  -21.5253   38.3812 C   0  0  0  0  0  0  0  0  0  0  0  0
   34.1713  -20.6530   37.5886 C   0  0  0  0  0  0  0  0  0  0  0  0
   33.8512  -20.5806   36.2552 C   0  0  0  0  0  0  0  0  0  0  0  0
   32.8183  -21.3676   35.7032 C   0  0  0  0  0  0  0  0  0  0  0  0
   32.5174  -21.1532   34.0053 Cl  0  0  0  0  0  0  0  0  0  0  0  0
   27.8815  -25.7929   34.8596 C   0  0  0  0  0  0  0  0  0  0  0  0
   28.9392  -24.9321   35.5259 C   0  0  0  0  0  0  0  0  0  0  0  0
   29.1930  -25.4906   36.8868 C   0  0  0  0  0  0  0  0  0  0  0  0
   28.5471  -23.4994   35.5360 C   0  0  0  0  0  0  0  0  0  0  0  0
   29.5871  -22.6808   36.2873 C   0  0  0  0  0  0  0  0  0  0  0  0
   30.9745  -23.0709   35.9766 C   0  0  0  0  0  0  0  0  0  0  0  0
   31.2380  -24.1483   35.2426 C   0  0  0  0  0  0  0  0  0  0  0  0
   30.2048  -25.0588   34.6650 C   0  0  0  0  0  0  0  0  0  0  0  0
   33.7176  -21.6623   39.7926 C   0  0  0  0  0  0  0  0  0  0  0  0
   33.9512  -21.7880   40.9303 N   0  0  0  0  0  0  0  0  0  0  0  0
   39.0644  -22.2270   39.8829 C   0  0  0  0  0  0  0  0  0  0  0  0
   39.5074  -23.0657   40.5760 N   0  0  0  0  0  0  0  0  0  0  0  0
 33 34  1  0  0  0
 34 35  1  0  0  0
 34 36  1  0  0  0
 36 37  1  0  0  0
 37 38  1  0  0  0
 38 39  2  0  0  0
 39 40  1  0  0  0
 38 26  1  0  0  0
 26 27  2  0  0  0
 27 28  1  0  0  0
 28 41  1  0  0  0
 41 42  3  0  0  0
 28 29  2  0  0  0
 29 24  1  0  0  0
 24  1  1  0  0  0
  1  2  2  0  0  0
  2  3  1  0  0  0
  3  4  2  0  0  0
  4  5  1  0  0  0
  5  6  2  0  0  0
  5 43  1  0  0  0
 43 44  3  0  0  0
  4  7  1  0  0  0
  7  8  1  0  0  0
  8  9  1  0  0  0
  9 10  1  0  0  0
  9 11  1  0  0  0
  9 12  1  0  0  0
 12 13  1  0  0  0
 13 14  2  0  0  0
 14 15  1  0  0  0
 15 16  2  0  0  0
 16 19  1  0  0  0
 19 20  1  0  0  0
 20 21  1  0  0  0
 20 22  1  0  0  0
 20 23  1  0  0  0
 16 17  1  0  0  0
 17 18  2  0  0  0
 29 30  1  0  0  0
 30 31  2  0  0  0
 31 32  1  0  0  0
 40 34  1  0  0  0
 31 26  1  0  0  0
  6  1  1  0  0  0
 18  7  1  0  0  0
 18 13  1  0  0  0
 24 25  1  0  0  0
M  END
> <minimizedAffinity>
-5.47719

> <CNNscore>
0.2384141833

> <CNNaffinity>
6.2267332077

> <CNN_VS>
1.4845415354

> <CNNaffinity_variance>
0.6010632515

$$$$
[H]C1=C(c2c([H])c(C#N)c(N([H])c3c([H])c([H])c(C4([H])c5c([H])c(OC(F)(F)F)c([H])c([H])c5OC(C([H])([H])[H])(C([H])([H])[H])C4([H])[H])c(C#N)c3[H])c([H])c2Cl)C([H])([H])C([H])([H])C(C([H])([H])[H])(C([H])([H])[H])C1([H])[H]


 44 48  0  0  0  0  0  0  0  0999 V2000
   37.7314  -19.7950   37.0164 C   0  0  0  0  0  0  0  0  0  0  0  0
   38.0013  -21.1370   37.0537 C   0  0  0  0  0  0  0  0  0  0  0  0
   39.2827  -21.5963   36.9085 C   0  0  0  0  0  0  0  0  0  0  0  0
   40.3945  -20.7682   36.7168 C   0  0  0  0  0  0  0  0  0  0  0  0
   40.1170  -19.4203   36.6808 C   0  0  0  0  0  0  0  0  0  0  0  0
   38.8218  -18.9442   36.8267 C   0  0  0  0  0  0  0  0  0  0  0  0
   41.7276  -21.3522   36.5823 C   0  0  0  0  0  0  0  0  0  0  0  0
   41.8354  -22.3921   35.5220 C   0  0  0  0  0  0  0  0  0  0  0  0
   43.1735  -23.1058   35.5786 C   0  0  0  0  0  0  0  0  0  0  0  0
   44.2363  -22.0544   35.2587 C   0  0  0  0  0  0  0  0  0  0  0  0
   43.1873  -24.2114   34.5431 C   0  0  0  0  0  0  0  0  0  0  0  0
   43.4077  -23.6372   36.8579 O   0  0  0  0  0  0  0  0  0  0  0  0
   43.1545  -22.8754   37.9773 C   0  0  0  0  0  0  0  0  0  0  0  0
   43.7051  -23.2147   39.1919 C   0  0  0  0  0  0  0  0  0  0  0  0
   43.4232  -22.4250   40.2840 C   0  0  0  0  0  0  0  0  0  0  0  0
   42.6180  -21.3060   40.2404 C   0  0  0  0  0  0  0  0  0  0  0  0
   42.0918  -21.0171   38.9802 C   0  0  0  0  0  0  0  0  0  0  0  0
   42.3475  -21.7760   37.8707 C   0  0  0  0  0  0  0  0  0  0  0  0
   42.3525  -20.5293   41.3602 O   0  0  0  0  0  0  0  0  0  0  0  0
   42.8233  -19.1798   41.2991 C   0  0  0  0  0  0  0  0  0  0  0  0
   42.0542  -18.4576   40.4074 F   0  0  0  0  0  0  0  0  0  0  0  0
   44.1500  -19.1992   40.8806 F   0  0  0  0  0  0  0  0  0  0  0  0
   42.7772  -18.5564   42.5229 F   0  0  0  0  0  0  0  0  0  0  0  0
   36.4385  -19.2250   37.1196 N   0  0  0  0  0  0  0  0  0  0  0  0
   36.4196  -18.2238   37.5062 H   0  0  0  0  0  0  0  0  0  0  0  0
   32.6681  -20.9502   36.2386 C   0  0  0  0  0  0  0  0  0  0  0  0
   33.2652  -21.0017   37.5025 C   0  0  0  0  0  0  0  0  0  0  0  0
   34.5024  -20.4472   37.7794 C   0  0  0  0  0  0  0  0  0  0  0  0
   35.2109  -19.8033   36.7803 C   0  0  0  0  0  0  0  0  0  0  0  0
   34.6445  -19.7398   35.5309 C   0  0  0  0  0  0  0  0  0  0  0  0
   33.3817  -20.3108   35.2662 C   0  0  0  0  0  0  0  0  0  0  0  0
   32.7875  -20.1344   33.6429 Cl  0  0  0  0  0  0  0  0  0  0  0  0
   27.4984  -23.4345   35.9377 C   0  0  0  0  0  0  0  0  0  0  0  0
   28.7983  -22.7212   36.2619 C   0  0  0  0  0  0  0  0  0  0  0  0
   28.9276  -22.6588   37.7478 C   0  0  0  0  0  0  0  0  0  0  0  0
   28.8676  -21.3913   35.6037 C   0  0  0  0  0  0  0  0  0  0  0  0
   30.1415  -20.6705   36.0206 C   0  0  0  0  0  0  0  0  0  0  0  0
   31.3259  -21.5477   36.0533 C   0  0  0  0  0  0  0  0  0  0  0  0
   31.2119  -22.8635   35.8963 C   0  0  0  0  0  0  0  0  0  0  0  0
   29.9238  -23.5863   35.6757 C   0  0  0  0  0  0  0  0  0  0  0  0
   35.0250  -20.5583   39.1207 C   0  0  0  0  0  0  0  0  0  0  0  0
   35.4304  -20.6582   40.2117 N   0  0  0  0  0  0  0  0  0  0  0  0
   41.2027  -18.5062   36.4718 C   0  0  0  0  0  0  0  0  0  0  0  0
   42.1074  -17.7740   36.3117 N   0  0  0  0  0  0  0  0  0  0  0  0
 33 34  1  0  0  0
 34 35  1  0  0  0
 34 36  1  0  0  0
 36 37  1  0  0  0
 37 38  1  0  0  0
 38 39  2  0  0  0
 39 40  1  0  0  0
 38 26  1  0  0  0
 26 27  2  0  0  0
 27 28  1  0  0  0
 28 41  1  0  0  0
 41 42  3  0  0  0
 28 29  2  0  0  0
 29 24  1  0  0  0
 24  1  1  0  0  0
  1  2  2  0  0  0
  2  3  1  0  0  0
  3  4  2  0  0  0
  4  5  1  0  0  0
  5  6  2  0  0  0
  5 43  1  0  0  0
 43 44  3  0  0  0
  4  7  1  0  0  0
  7  8  1  0  0  0
  8  9  1  0  0  0
  9 10  1  0  0  0
  9 11  1  0  0  0
  9 12  1  0  0  0
 12 13  1  0  0  0
 13 14  2  0  0  0
 14 15  1  0  0  0
 15 16  2  0  0  0
 16 19  1  0  0  0
 19 20  1  0  0  0
 20 21  1  0  0  0
 20 22  1  0  0  0
 20 23  1  0  0  0
 16 17  1  0  0  0
 17 18  2  0  0  0
 29 30  1  0  0  0
 30 31  2  0  0  0
 31 32  1  0  0  0
 40 34  1  0  0  0
 31 26  1  0  0  0
  6  1  1  0  0  0
 18  7  1  0  0  0
 18 13  1  0  0  0
 24 25  1  0  0  0
M  END
> <minimizedAffinity>
-5.92993

> <CNNscore>
0.2219527811

> <CNNaffinity>
6.2604017258

> <CNN_VS>
1.3895136118

> <CNNaffinity_variance>
0.0480418578

$$$$
[H]C1=C(c2c([H])c(C#N)c(N([H])c3c([H])c([H])c(C4([H])c5c([H])c(OC(F)(F)F)c([H])c([H])c5OC(C([H])([H])[H])(C([H])([H])[H])C4([H])[H])c(C#N)c3[H])c([H])c2Cl)C([H])([H])C([H])([H])C(C([H])([H])[H])(C([H])([H])[H])C1([H])[H]


 44 48  0  0  0  0  0  0  0  0999 V2000
   38.0413  -20.4203   35.1697 C   0  0  0  0  0  0  0  0  0  0  0  0
   38.6307  -21.4423   34.4745 C   0  0  0  0  0  0  0  0  0  0  0  0
   39.8519  -21.9317   34.8530 C   0  0  0  0  0  0  0  0  0  0  0  0
   40.5836  -21.4520   35.9452 C   0  0  0  0  0  0  0  0  0  0  0  0
   39.9858  -20.4252   36.6405 C   0  0  0  0  0  0  0  0  0  0  0  0
   38.7485  -19.9216   36.2652 C   0  0  0  0  0  0  0  0  0  0  0  0
   41.8765  -22.0469   36.2781 C   0  0  0  0  0  0  0  0  0  0  0  0
   42.8188  -22.1440   35.1293 C   0  0  0  0  0  0  0  0  0  0  0  0
   44.0477  -22.9595   35.4868 C   0  0  0  0  0  0  0  0  0  0  0  0
   44.7802  -22.1787   36.5783 C   0  0  0  0  0  0  0  0  0  0  0  0
   44.9196  -23.1033   34.2565 C   0  0  0  0  0  0  0  0  0  0  0  0
   43.6874  -24.2262   35.9761 O   0  0  0  0  0  0  0  0  0  0  0  0
   42.6731  -24.3447   36.9006 C   0  0  0  0  0  0  0  0  0  0  0  0
   42.5472  -25.4878   37.6562 C   0  0  0  0  0  0  0  0  0  0  0  0
   41.5173  -25.5627   38.5670 C   0  0  0  0  0  0  0  0  0  0  0  0
   40.5951  -24.5581   38.7738 C   0  0  0  0  0  0  0  0  0  0  0  0
   40.7789  -23.4270   37.9767 C   0  0  0  0  0  0  0  0  0  0  0  0
   41.7888  -23.3133   37.0607 C   0  0  0  0  0  0  0  0  0  0  0  0
   39.5668  -24.6636   39.7008 O   0  0  0  0  0  0  0  0  0  0  0  0
   38.2778  -24.9652   39.1587 C   0  0  0  0  0  0  0  0  0  0  0  0
   37.8069  -23.8806   38.4445 F   0  0  0  0  0  0  0  0  0  0  0  0
   37.4176  -25.2537   40.2135 F   0  0  0  0  0  0  0  0  0  0  0  0
   38.3056  -26.0590   38.3273 F   0  0  0  0  0  0  0  0  0  0  0  0
   36.8012  -19.8222   34.8359 N   0  0  0  0  0  0  0  0  0  0  0  0
   36.1791  -20.4111   34.1891 H   0  0  0  0  0  0  0  0  0  0  0  0
   35.1512  -16.1251   36.0919 C   0  0  0  0  0  0  0  0  0  0  0  0
   34.4361  -17.0838   35.3667 C   0  0  0  0  0  0  0  0  0  0  0  0
   34.9854  -18.2833   34.9490 C   0  0  0  0  0  0  0  0  0  0  0  0
   36.3039  -18.5806   35.2457 C   0  0  0  0  0  0  0  0  0  0  0  0
   37.0260  -17.6544   35.9574 C   0  0  0  0  0  0  0  0  0  0  0  0
   36.4498  -16.4362   36.3754 C   0  0  0  0  0  0  0  0  0  0  0  0
   37.4823  -15.3732   37.2828 Cl  0  0  0  0  0  0  0  0  0  0  0  0
   32.8762  -11.1103   37.7245 C   0  0  0  0  0  0  0  0  0  0  0  0
   33.6188  -12.2924   37.1288 C   0  0  0  0  0  0  0  0  0  0  0  0
   34.8457  -11.7706   36.4573 C   0  0  0  0  0  0  0  0  0  0  0  0
   32.7433  -13.0879   36.2304 C   0  0  0  0  0  0  0  0  0  0  0  0
   33.5431  -14.2103   35.5848 C   0  0  0  0  0  0  0  0  0  0  0  0
   34.4618  -14.8861   36.5190 C   0  0  0  0  0  0  0  0  0  0  0  0
   34.6640  -14.4150   37.7463 C   0  0  0  0  0  0  0  0  0  0  0  0
   34.0125  -13.1943   38.3080 C   0  0  0  0  0  0  0  0  0  0  0  0
   34.1558  -19.2018   34.2056 C   0  0  0  0  0  0  0  0  0  0  0  0
   33.4980  -19.9439   33.5882 N   0  0  0  0  0  0  0  0  0  0  0  0
   40.6810  -19.8679   37.7649 C   0  0  0  0  0  0  0  0  0  0  0  0
   41.2552  -19.3911   38.6721 N   0  0  0  0  0  0  0  0  0  0  0  0
 33 34  1  0  0  0
 34 35  1  0  0  0
 34 36  1  0  0  0
 36 37  1  0  0  0
 37 38  1  0  0  0
 38 39  2  0  0  0
 39 40  1  0  0  0
 38 26  1  0  0  0
 26 27  2  0  0  0
 27 28  1  0  0  0
 28 41  1  0  0  0
 41 42  3  0  0  0
 28 29  2  0  0  0
 29 24  1  0  0  0
 24  1  1  0  0  0
  1  2  2  0  0  0
  2  3  1  0  0  0
  3  4  2  0  0  0
  4  5  1  0  0  0
  5  6  2  0  0  0
  5 43  1  0  0  0
 43 44  3  0  0  0
  4  7  1  0  0  0
  7  8  1  0  0  0
  8  9  1  0  0  0
  9 10  1  0  0  0
  9 11  1  0  0  0
  9 12  1  0  0  0
 12 13  1  0  0  0
 13 14  2  0  0  0
 14 15  1  0  0  0
 15 16  2  0  0  0
 16 19  1  0  0  0
 19 20  1  0  0  0
 20 21  1  0  0  0
 20 22  1  0  0  0
 20 23  1  0  0  0
 16 17  1  0  0  0
 17 18  2  0  0  0
 29 30  1  0  0  0
 30 31  2  0  0  0
 31 32  1  0  0  0
 40 34  1  0  0  0
 31 26  1  0  0  0
  6  1  1  0  0  0
 18  7  1  0  0  0
 18 13  1  0  0  0
 24 25  1  0  0  0
M  END
> <minimizedAffinity>
-5.75477

> <CNNscore>
0.2140009850

> <CNNaffinity>
6.7886824608

> <CNN_VS>
1.4527847767

> <CNNaffinity_variance>
0.4610990882

$$$$
[H]C1=C(c2c([H])c(C#N)c(N([H])c3c([H])c([H])c(C4([H])c5c([H])c(OC(F)(F)F)c([H])c([H])c5OC(C([H])([H])[H])(C([H])([H])[H])C4([H])[H])c(C#N)c3[H])c([H])c2Cl)C([H])([H])C([H])([H])C(C([H])([H])[H])(C([H])([H])[H])C1([H])[H]


 44 48  0  0  0  0  0  0  0  0999 V2000
   37.4586  -19.4186   37.2353 C   0  0  0  0  0  0  0  0  0  0  0  0
   38.0788  -20.2063   38.1680 C   0  0  0  0  0  0  0  0  0  0  0  0
   39.3812  -20.5937   38.0006 C   0  0  0  0  0  0  0  0  0  0  0  0
   40.1706  -20.2333   36.9026 C   0  0  0  0  0  0  0  0  0  0  0  0
   39.5418  -19.4409   35.9688 C   0  0  0  0  0  0  0  0  0  0  0  0
   38.2222  -19.0428   36.1287 C   0  0  0  0  0  0  0  0  0  0  0  0
   41.5569  -20.6880   36.8173 C   0  0  0  0  0  0  0  0  0  0  0  0
   42.5520  -19.5906   36.6659 C   0  0  0  0  0  0  0  0  0  0  0  0
   43.9370  -20.1345   36.3675 C   0  0  0  0  0  0  0  0  0  0  0  0
   44.3615  -20.9322   37.6007 C   0  0  0  0  0  0  0  0  0  0  0  0
   44.8821  -18.9747   36.1303 C   0  0  0  0  0  0  0  0  0  0  0  0
   43.9158  -20.9795   35.2453 O   0  0  0  0  0  0  0  0  0  0  0  0
   42.9241  -21.9267   35.1148 C   0  0  0  0  0  0  0  0  0  0  0  0
   43.0785  -22.9842   34.2479 C   0  0  0  0  0  0  0  0  0  0  0  0
   42.0605  -23.9060   34.1490 C   0  0  0  0  0  0  0  0  0  0  0  0
   40.8855  -23.8388   34.8683 C   0  0  0  0  0  0  0  0  0  0  0  0
   40.7923  -22.7434   35.7285 C   0  0  0  0  0  0  0  0  0  0  0  0
   41.7807  -21.8059   35.8559 C   0  0  0  0  0  0  0  0  0  0  0  0
   39.8767  -24.7849   34.7465 O   0  0  0  0  0  0  0  0  0  0  0  0
   38.9570  -24.5694   33.6721 C   0  0  0  0  0  0  0  0  0  0  0  0
   39.5452  -24.9303   32.4754 F   0  0  0  0  0  0  0  0  0  0  0  0
   38.6189  -23.2199   33.6515 F   0  0  0  0  0  0  0  0  0  0  0  0
   37.7979  -25.2912   33.8263 F   0  0  0  0  0  0  0  0  0  0  0  0
   36.1076  -18.9970   37.2996 N   0  0  0  0  0  0  0  0  0  0  0  0
   35.9632  -18.0161   37.7110 H   0  0  0  0  0  0  0  0  0  0  0  0
   32.5869  -21.0954   36.2182 C   0  0  0  0  0  0  0  0  0  0  0  0
   33.1283  -21.1075   37.5079 C   0  0  0  0  0  0  0  0  0  0  0  0
   34.2854  -20.4302   37.8505 C   0  0  0  0  0  0  0  0  0  0  0  0
   34.9654  -19.6957   36.8949 C   0  0  0  0  0  0  0  0  0  0  0  0
   34.4524  -19.6688   35.6214 C   0  0  0  0  0  0  0  0  0  0  0  0
   33.2711  -20.3654   35.2896 C   0  0  0  0  0  0  0  0  0  0  0  0
   32.7355  -20.2220   33.6428 Cl  0  0  0  0  0  0  0  0  0  0  0  0
   27.7807  -24.1780   35.5960 C   0  0  0  0  0  0  0  0  0  0  0  0
   28.9933  -23.3664   36.0138 C   0  0  0  0  0  0  0  0  0  0  0  0
   29.2079  -23.5836   37.4751 C   0  0  0  0  0  0  0  0  0  0  0  0
   28.8449  -21.9361   35.6418 C   0  0  0  0  0  0  0  0  0  0  0  0
   30.0367  -21.1393   36.1526 C   0  0  0  0  0  0  0  0  0  0  0  0
   31.3260  -21.8284   35.9617 C   0  0  0  0  0  0  0  0  0  0  0  0
   31.3764  -23.0891   35.5410 C   0  0  0  0  0  0  0  0  0  0  0  0
   30.1833  -23.9288   35.2221 C   0  0  0  0  0  0  0  0  0  0  0  0
   34.7558  -20.5109   39.2131 C   0  0  0  0  0  0  0  0  0  0  0  0
   35.1257  -20.5940   40.3180 N   0  0  0  0  0  0  0  0  0  0  0  0
   40.2802  -19.0419   34.8054 C   0  0  0  0  0  0  0  0  0  0  0  0
   40.8635  -18.7148   33.8396 N   0  0  0  0  0  0  0  0  0  0  0  0
 33 34  1  0  0  0
 34 35  1  0  0  0
 34 36  1  0  0  0
 36 37  1  0  0  0
 37 38  1  0  0  0
 38 39  2  0  0  0
 39 40  1  0  0  0
 38 26  1  0  0  0
 26 27  2  0  0  0
 27 28  1  0  0  0
 28 41  1  0  0  0
 41 42  3  0  0  0
 28 29  2  0  0  0
 29 24  1  0  0  0
 24  1  1  0  0  0
  1  2  2  0  0  0
  2  3  1  0  0  0
  3  4  2  0  0  0
  4  5  1  0  0  0
  5  6  2  0  0  0
  5 43  1  0  0  0
 43 44  3  0  0  0
  4  7  1  0  0  0
  7  8  1  0  0  0
  8  9  1  0  0  0
  9 10  1  0  0  0
  9 11  1  0  0  0
  9 12  1  0  0  0
 12 13  1  0  0  0
 13 14  2  0  0  0
 14 15  1  0  0  0
 15 16  2  0  0  0
 16 19  1  0  0  0
 19 20  1  0  0  0
 20 21  1  0  0  0
 20 22  1  0  0  0
 20 23  1  0  0  0
 16 17  1  0  0  0
 17 18  2  0  0  0
 29 30  1  0  0  0
 30 31  2  0  0  0
 31 32  1  0  0  0
 40 34  1  0  0  0
 31 26  1  0  0  0
  6  1  1  0  0  0
 18  7  1  0  0  0
 18 13  1  0  0  0
 24 25  1  0  0  0
M  END
> <minimizedAffinity>
-5.93054

> <CNNscore>
0.2042161822

> <CNNaffinity>
6.3289484978

> <CNN_VS>
1.2924736738

> <CNNaffinity_variance>
0.1199660748

$$$$
[H]C1=C(c2c([H])c(C#N)c(N([H])c3c([H])c([H])c(C4([H])c5c([H])c(OC(F)(F)F)c([H])c([H])c5OC(C([H])([H])[H])(C([H])([H])[H])C4([H])[H])c(C#N)c3[H])c([H])c2Cl)C([H])([H])C([H])([H])C(C([H])([H])[H])(C([H])([H])[H])C1([H])[H]


 44 48  0  0  0  0  0  0  0  0999 V2000
   36.8247  -19.7588   37.7356 C   0  0  0  0  0  0  0  0  0  0  0  0
   37.5817  -19.1485   36.7714 C   0  0  0  0  0  0  0  0  0  0  0  0
   38.9287  -19.3791   36.6906 C   0  0  0  0  0  0  0  0  0  0  0  0
   39.6309  -20.2290   37.5527 C   0  0  0  0  0  0  0  0  0  0  0  0
   38.8645  -20.8400   38.5194 C   0  0  0  0  0  0  0  0  0  0  0  0
   37.4987  -20.6130   38.6103 C   0  0  0  0  0  0  0  0  0  0  0  0
   41.0696  -20.4201   37.3806 C   0  0  0  0  0  0  0  0  0  0  0  0
   41.8521  -19.1545   37.3242 C   0  0  0  0  0  0  0  0  0  0  0  0
   43.2951  -19.4111   36.9305 C   0  0  0  0  0  0  0  0  0  0  0  0
   43.9071  -20.2446   38.0566 C   0  0  0  0  0  0  0  0  0  0  0  0
   44.0137  -18.0843   36.7970 C   0  0  0  0  0  0  0  0  0  0  0  0
   43.3689  -20.1257   35.7231 O   0  0  0  0  0  0  0  0  0  0  0  0
   42.5510  -21.2146   35.5160 C   0  0  0  0  0  0  0  0  0  0  0  0
   42.8458  -22.1326   34.5342 C   0  0  0  0  0  0  0  0  0  0  0  0
   41.9991  -23.2045   34.3619 C   0  0  0  0  0  0  0  0  0  0  0  0
   40.8643  -23.4209   35.1156 C   0  0  0  0  0  0  0  0  0  0  0  0
   40.6227  -22.4543   36.0933 C   0  0  0  0  0  0  0  0  0  0  0  0
   41.4390  -21.3752   36.2964 C   0  0  0  0  0  0  0  0  0  0  0  0
   40.0297  -24.5126   34.9176 O   0  0  0  0  0  0  0  0  0  0  0  0
   38.7335  -24.2096   34.3938 C   0  0  0  0  0  0  0  0  0  0  0  0
   38.7747  -23.0082   33.7132 F   0  0  0  0  0  0  0  0  0  0  0  0
   37.8414  -24.1263   35.4583 F   0  0  0  0  0  0  0  0  0  0  0  0
   38.2772  -25.1829   33.5377 F   0  0  0  0  0  0  0  0  0  0  0  0
   35.4352  -19.5569   37.9238 N   0  0  0  0  0  0  0  0  0  0  0  0
   35.1844  -18.7258   38.5552 H   0  0  0  0  0  0  0  0  0  0  0  0
   32.1562  -21.8035   36.4509 C   0  0  0  0  0  0  0  0  0  0  0  0
   32.6327  -21.9008   37.7624 C   0  0  0  0  0  0  0  0  0  0  0  0
   33.7120  -21.1734   38.2326 C   0  0  0  0  0  0  0  0  0  0  0  0
   34.3755  -20.2982   37.3907 C   0  0  0  0  0  0  0  0  0  0  0  0
   33.9253  -20.1856   36.0983 C   0  0  0  0  0  0  0  0  0  0  0  0
   32.8231  -20.9351   35.6357 C   0  0  0  0  0  0  0  0  0  0  0  0
   32.3591  -20.6719   33.9819 Cl  0  0  0  0  0  0  0  0  0  0  0  0
   27.6639  -25.1786   35.2604 C   0  0  0  0  0  0  0  0  0  0  0  0
   28.7861  -24.3257   35.8235 C   0  0  0  0  0  0  0  0  0  0  0  0
   28.9726  -24.7026   37.2559 C   0  0  0  0  0  0  0  0  0  0  0  0
   28.5235  -22.8780   35.6200 C   0  0  0  0  0  0  0  0  0  0  0  0
   29.6233  -22.0530   36.2728 C   0  0  0  0  0  0  0  0  0  0  0  0
   30.9739  -22.6025   36.0552 C   0  0  0  0  0  0  0  0  0  0  0  0
   31.1490  -23.7930   35.4886 C   0  0  0  0  0  0  0  0  0  0  0  0
   30.0457  -24.6842   35.0210 C   0  0  0  0  0  0  0  0  0  0  0  0
   34.1198  -21.3514   39.6061 C   0  0  0  0  0  0  0  0  0  0  0  0
   34.4495  -21.4747   40.7199 N   0  0  0  0  0  0  0  0  0  0  0  0
   39.5145  -21.7148   39.4524 C   0  0  0  0  0  0  0  0  0  0  0  0
   40.0420  -22.4146   40.2347 N   0  0  0  0  0  0  0  0  0  0  0  0
 33 34  1  0  0  0
 34 35  1  0  0  0
 34 36  1  0  0  0
 36 37  1  0  0  0
 37 38  1  0  0  0
 38 39  2  0  0  0
 39 40  1  0  0  0
 38 26  1  0  0  0
 26 27  2  0  0  0
 27 28  1  0  0  0
 28 41  1  0  0  0
 41 42  3  0  0  0
 28 29  2  0  0  0
 29 24  1  0  0  0
 24  1  1  0  0  0
  1  2  2  0  0  0
  2  3  1  0  0  0
  3  4  2  0  0  0
  4  5  1  0  0  0
  5  6  2  0  0  0
  5 43  1  0  0  0
 43 44  3  0  0  0
  4  7  1  0  0  0
  7  8  1  0  0  0
  8  9  1  0  0  0
  9 10  1  0  0  0
  9 11  1  0  0  0
  9 12  1  0  0  0
 12 13  1  0  0  0
 13 14  2  0  0  0
 14 15  1  0  0  0
 15 16  2  0  0  0
 16 19  1  0  0  0
 19 20  1  0  0  0
 20 21  1  0  0  0
 20 22  1  0  0  0
 20 23  1  0  0  0
 16 17  1  0  0  0
 17 18  2  0  0  0
 29 30  1  0  0  0
 30 31  2  0  0  0
 31 32  1  0  0  0
 40 34  1  0  0  0
 31 26  1  0  0  0
  6  1  1  0  0  0
 18  7  1  0  0  0
 18 13  1  0  0  0
 24 25  1  0  0  0
M  END
> <minimizedAffinity>
-5.73880

> <CNNscore>
0.2005781233

> <CNNaffinity>
6.2874155045

> <CNN_VS>
1.2611180544

> <CNNaffinity_variance>
0.3162155747

$$$$
[H]C1=C(c2c([H])c(C#N)c(N([H])c3c([H])c([H])c(C4([H])c5c([H])c(OC(F)(F)F)c([H])c([H])c5OC(C([H])([H])[H])(C([H])([H])[H])C4([H])[H])c(C#N)c3[H])c([H])c2Cl)C([H])([H])C([H])([H])C(C([H])([H])[H])(C([H])([H])[H])C1([H])[H]


 44 48  0  0  0  0  0  0  0  0999 V2000
   37.3253  -19.4795   36.7357 C   0  0  0  0  0  0  0  0  0  0  0  0
   38.4997  -20.1780   36.6472 C   0  0  0  0  0  0  0  0  0  0  0  0
   38.8864  -21.0249   37.6509 C   0  0  0  0  0  0  0  0  0  0  0  0
   38.1446  -21.2482   38.8165 C   0  0  0  0  0  0  0  0  0  0  0  0
   36.9647  -20.5438   38.8994 C   0  0  0  0  0  0  0  0  0  0  0  0
   36.5637  -19.6827   37.8879 C   0  0  0  0  0  0  0  0  0  0  0  0
   38.6354  -22.1811   39.8289 C   0  0  0  0  0  0  0  0  0  0  0  0
   40.1066  -22.1237   40.0512 C   0  0  0  0  0  0  0  0  0  0  0  0
   40.5772  -23.2549   40.9468 C   0  0  0  0  0  0  0  0  0  0  0  0
   39.9273  -23.0230   42.3111 C   0  0  0  0  0  0  0  0  0  0  0  0
   42.0869  -23.2007   41.0583 C   0  0  0  0  0  0  0  0  0  0  0  0
   40.1733  -24.5011   40.4393 O   0  0  0  0  0  0  0  0  0  0  0  0
   38.8853  -24.6743   39.9825 C   0  0  0  0  0  0  0  0  0  0  0  0
   38.3623  -25.9380   39.8309 C   0  0  0  0  0  0  0  0  0  0  0  0
   37.0710  -26.0632   39.3699 C   0  0  0  0  0  0  0  0  0  0  0  0
   36.2595  -24.9955   39.0471 C   0  0  0  0  0  0  0  0  0  0  0  0
   36.8495  -23.7428   39.2234 C   0  0  0  0  0  0  0  0  0  0  0  0
   38.1289  -23.5757   39.6789 C   0  0  0  0  0  0  0  0  0  0  0  0
   34.9602  -25.1543   38.5843 O   0  0  0  0  0  0  0  0  0  0  0  0
   33.9296  -24.8977   39.5428 C   0  0  0  0  0  0  0  0  0  0  0  0
   32.8506  -25.7253   39.3000 F   0  0  0  0  0  0  0  0  0  0  0  0
   33.5468  -23.5653   39.4256 F   0  0  0  0  0  0  0  0  0  0  0  0
   34.3564  -25.1009   40.8331 F   0  0  0  0  0  0  0  0  0  0  0  0
   36.8576  -18.5543   35.7701 N   0  0  0  0  0  0  0  0  0  0  0  0
   36.9766  -18.8709   34.7514 H   0  0  0  0  0  0  0  0  0  0  0  0
   34.9349  -14.8381   36.4493 C   0  0  0  0  0  0  0  0  0  0  0  0
   34.3032  -15.9389   35.8613 C   0  0  0  0  0  0  0  0  0  0  0  0
   34.9412  -17.1451   35.6310 C   0  0  0  0  0  0  0  0  0  0  0  0
   36.2689  -17.3041   35.9872 C   0  0  0  0  0  0  0  0  0  0  0  0
   36.9100  -16.2369   36.5666 C   0  0  0  0  0  0  0  0  0  0  0  0
   36.2439  -15.0141   36.7941 C   0  0  0  0  0  0  0  0  0  0  0  0
   37.1808  -13.7621   37.5518 Cl  0  0  0  0  0  0  0  0  0  0  0  0
   31.6976  -10.2572   37.6841 C   0  0  0  0  0  0  0  0  0  0  0  0
   32.5673  -11.4992   37.6152 C   0  0  0  0  0  0  0  0  0  0  0  0
   32.4639  -12.2034   38.9275 C   0  0  0  0  0  0  0  0  0  0  0  0
   33.9623  -11.1655   37.2290 C   0  0  0  0  0  0  0  0  0  0  0  0
   34.8236  -12.4200   37.2556 C   0  0  0  0  0  0  0  0  0  0  0  0
   34.1542  -13.6012   36.6811 C   0  0  0  0  0  0  0  0  0  0  0  0
   32.8675  -13.5676   36.3461 C   0  0  0  0  0  0  0  0  0  0  0  0
   31.9775  -12.3787   36.5028 C   0  0  0  0  0  0  0  0  0  0  0  0
   34.1930  -18.2166   35.0174 C   0  0  0  0  0  0  0  0  0  0  0  0
   33.6019  -19.0845   34.5056 N   0  0  0  0  0  0  0  0  0  0  0  0
   36.1547  -20.7065   40.0722 C   0  0  0  0  0  0  0  0  0  0  0  0
   35.4998  -20.8633   41.0348 N   0  0  0  0  0  0  0  0  0  0  0  0
 33 34  1  0  0  0
 34 35  1  0  0  0
 34 36  1  0  0  0
 36 37  1  0  0  0
 37 38  1  0  0  0
 38 39  2  0  0  0
 39 40  1  0  0  0
 38 26  1  0  0  0
 26 27  2  0  0  0
 27 28  1  0  0  0
 28 41  1  0  0  0
 41 42  3  0  0  0
 28 29  2  0  0  0
 29 24  1  0  0  0
 24  1  1  0  0  0
  1  2  2  0  0  0
  2  3  1  0  0  0
  3  4  2  0  0  0
  4  5  1  0  0  0
  5  6  2  0  0  0
  5 43  1  0  0  0
 43 44  3  0  0  0
  4  7  1  0  0  0
  7  8  1  0  0  0
  8  9  1  0  0  0
  9 10  1  0  0  0
  9 11  1  0  0  0
  9 12  1  0  0  0
 12 13  1  0  0  0
 13 14  2  0  0  0
 14 15  1  0  0  0
 15 16  2  0  0  0
 16 19  1  0  0  0
 19 20  1  0  0  0
 20 21  1  0  0  0
 20 22  1  0  0  0
 20 23  1  0  0  0
 16 17  1  0  0  0
 17 18  2  0  0  0
 29 30  1  0  0  0
 30 31  2  0  0  0
 31 32  1  0  0  0
 40 34  1  0  0  0
 31 26  1  0  0  0
  6  1  1  0  0  0
 18  7  1  0  0  0
 18 13  1  0  0  0
 24 25  1  0  0  0
M  END
> <minimizedAffinity>
-6.19606

> <CNNscore>
0.1966163367

> <CNNaffinity>
6.7207460403

> <CNN_VS>
1.3214085102

> <CNNaffinity_variance>
0.1586686075

$$$$
[H]C1=C(c2c([H])c(C#N)c(N([H])c3c([H])c([H])c(C4([H])c5c([H])c(OC(F)(F)F)c([H])c([H])c5OC(C([H])([H])[H])(C([H])([H])[H])C4([H])[H])c(C#N)c3[H])c([H])c2Cl)C([H])([H])C([H])([H])C(C([H])([H])[H])(C([H])([H])[H])C1([H])[H]


 44 48  0  0  0  0  0  0  0  0999 V2000
   36.9850  -19.1700   37.0583 C   0  0  0  0  0  0  0  0  0  0  0  0
   37.9280  -18.2571   36.6680 C   0  0  0  0  0  0  0  0  0  0  0  0
   39.2428  -18.6187   36.5473 C   0  0  0  0  0  0  0  0  0  0  0  0
   39.7272  -19.9069   36.8010 C   0  0  0  0  0  0  0  0  0  0  0  0
   38.7745  -20.8204   37.1924 C   0  0  0  0  0  0  0  0  0  0  0  0
   37.4393  -20.4643   37.3180 C   0  0  0  0  0  0  0  0  0  0  0  0
   41.1492  -20.2002   36.6340 C   0  0  0  0  0  0  0  0  0  0  0  0
   41.4497  -21.1704   35.5451 C   0  0  0  0  0  0  0  0  0  0  0  0
   42.9068  -21.5940   35.5655 C   0  0  0  0  0  0  0  0  0  0  0  0
   43.7246  -20.3389   35.2602 C   0  0  0  0  0  0  0  0  0  0  0  0
   43.1292  -22.6485   34.5010 C   0  0  0  0  0  0  0  0  0  0  0  0
   43.2684  -22.0955   36.8271 O   0  0  0  0  0  0  0  0  0  0  0  0
   42.8840  -21.4287   37.9696 C   0  0  0  0  0  0  0  0  0  0  0  0
   43.5144  -21.6755   39.1676 C   0  0  0  0  0  0  0  0  0  0  0  0
   43.0957  -20.9867   40.2838 C   0  0  0  0  0  0  0  0  0  0  0  0
   42.0768  -20.0570   40.2803 C   0  0  0  0  0  0  0  0  0  0  0  0
   41.4799  -19.8534   39.0351 C   0  0  0  0  0  0  0  0  0  0  0  0
   41.8662  -20.5171   37.9027 C   0  0  0  0  0  0  0  0  0  0  0  0
   41.6774  -19.3781   41.4237 O   0  0  0  0  0  0  0  0  0  0  0  0
   40.7883  -20.0942   42.2858 C   0  0  0  0  0  0  0  0  0  0  0  0
   41.5139  -20.7621   43.2531 F   0  0  0  0  0  0  0  0  0  0  0  0
   40.0697  -21.0022   41.5145 F   0  0  0  0  0  0  0  0  0  0  0  0
   39.8866  -19.2650   42.9086 F   0  0  0  0  0  0  0  0  0  0  0  0
   35.6101  -18.8851   37.2475 N   0  0  0  0  0  0  0  0  0  0  0  0
   35.4100  -17.9705   37.7725 H   0  0  0  0  0  0  0  0  0  0  0  0
   32.2189  -21.1781   36.1477 C   0  0  0  0  0  0  0  0  0  0  0  0
   32.8518  -21.2819   37.3907 C   0  0  0  0  0  0  0  0  0  0  0  0
   33.9666  -20.5391   37.7380 C   0  0  0  0  0  0  0  0  0  0  0  0
   34.5076  -19.6407   36.8352 C   0  0  0  0  0  0  0  0  0  0  0  0
   33.9028  -19.5213   35.6081 C   0  0  0  0  0  0  0  0  0  0  0  0
   32.7666  -20.2868   35.2708 C   0  0  0  0  0  0  0  0  0  0  0  0
   32.1017  -20.0127   33.6889 Cl  0  0  0  0  0  0  0  0  0  0  0  0
   27.6550  -24.6019   35.4860 C   0  0  0  0  0  0  0  0  0  0  0  0
   28.8130  -23.7195   35.9152 C   0  0  0  0  0  0  0  0  0  0  0  0
   29.0954  -24.0027   37.3534 C   0  0  0  0  0  0  0  0  0  0  0  0
   28.5379  -22.2869   35.6352 C   0  0  0  0  0  0  0  0  0  0  0  0
   29.6796  -21.4264   36.1570 C   0  0  0  0  0  0  0  0  0  0  0  0
   31.0122  -21.9956   35.8856 C   0  0  0  0  0  0  0  0  0  0  0  0
   31.1482  -23.2214   35.3880 C   0  0  0  0  0  0  0  0  0  0  0  0
   30.0155  -24.1359   35.0551 C   0  0  0  0  0  0  0  0  0  0  0  0
   34.5403  -20.7257   39.0497 C   0  0  0  0  0  0  0  0  0  0  0  0
   35.0175  -20.8912   40.1030 N   0  0  0  0  0  0  0  0  0  0  0  0
   39.1950  -22.1601   37.4865 C   0  0  0  0  0  0  0  0  0  0  0  0
   39.5330  -23.2640   37.7040 N   0  0  0  0  0  0  0  0  0  0  0  0
 33 34  1  0  0  0
 34 35  1  0  0  0
 34 36  1  0  0  0
 36 37  1  0  0  0
 37 38  1  0  0  0
 38 39  2  0  0  0
 39 40  1  0  0  0
 38 26  1  0  0  0
 26 27  2  0  0  0
 27 28  1  0  0  0
 28 41  1  0  0  0
 41 42  3  0  0  0
 28 29  2  0  0  0
 29 24  1  0  0  0
 24  1  1  0  0  0
  1  2  2  0  0  0
  2  3  1  0  0  0
  3  4  2  0  0  0
  4  5  1  0  0  0
  5  6  2  0  0  0
  5 43  1  0  0  0
 43 44  3  0  0  0
  4  7  1  0  0  0
  7  8  1  0  0  0
  8  9  1  0  0  0
  9 10  1  0  0  0
  9 11  1  0  0  0
  9 12  1  0  0  0
 12 13  1  0  0  0
 13 14  2  0  0  0
 14 15  1  0  0  0
 15 16  2  0  0  0
 16 19  1  0  0  0
 19 20  1  0  0  0
 20 21  1  0  0  0
 20 22  1  0  0  0
 20 23  1  0  0  0
 16 17  1  0  0  0
 17 18  2  0  0  0
 29 30  1  0  0  0
 30 31  2  0  0  0
 31 32  1  0  0  0
 40 34  1  0  0  0
 31 26  1  0  0  0
  6  1  1  0  0  0
 18  7  1  0  0  0
 18 13  1  0  0  0
 24 25  1  0  0  0
M  END
> <minimizedAffinity>
-6.00253

> <CNNscore>
0.1925492734

> <CNNaffinity>
6.1801929474

> <CNN_VS>
1.1899917126

> <CNNaffinity_variance>
0.1136493236

$$$$
[H]c1c([H])c(N2C(=O)N(C([H])([H])C([H])([H])n3c([H])c(OC([H])([H])[H])c4c([H])c([H])c(OC([H])([H])C([H])([H])N([H])C(=O)C([H])([H])C(C([H])([H])[H])(C([H])([H])[H])C([H])([H])[H])c([H])c43)C([H])([H])C2([H])[H])c([H])c(Cl)c1C#N


 40 43  0  0  0  0  0  0  0  0999 V2000
   36.2016  -14.3104   37.3561 C   0  0  0  0  0  0  0  0  0  0  0  0
   35.8992  -15.4537   36.6482 C   0  0  0  0  0  0  0  0  0  0  0  0
   34.6309  -15.4125   36.2187 N   0  0  0  0  0  0  0  0  0  0  0  0
   34.0486  -14.2555   36.6193 C   0  0  0  0  0  0  0  0  0  0  0  0
   32.7972  -13.7116   36.4589 C   0  0  0  0  0  0  0  0  0  0  0  0
   32.4389  -12.4572   36.9885 C   0  0  0  0  0  0  0  0  0  0  0  0
   33.4180  -11.7930   37.6835 C   0  0  0  0  0  0  0  0  0  0  0  0
   34.6921  -12.3510   37.8457 C   0  0  0  0  0  0  0  0  0  0  0  0
   35.0192  -13.5754   37.3215 C   0  0  0  0  0  0  0  0  0  0  0  0
   38.3271  -13.1588   37.2626 C   0  0  0  0  0  0  0  0  0  0  0  0
   37.3910  -13.9443   37.9718 O   0  0  0  0  0  0  0  0  0  0  0  0
   33.9570  -16.4206   35.4450 C   0  0  0  0  0  0  0  0  0  0  0  0
   34.2063  -17.8233   35.8951 C   0  0  0  0  0  0  0  0  0  0  0  0
   33.1845  -18.7288   35.4155 N   0  0  0  0  0  0  0  0  0  0  0  0
   32.4410  -18.5102   34.1853 C   0  0  0  0  0  0  0  0  0  0  0  0
   32.1636  -19.9361   33.7329 C   0  0  0  0  0  0  0  0  0  0  0  0
   31.9739  -20.6647   34.9655 N   0  0  0  0  0  0  0  0  0  0  0  0
   32.6887  -19.9452   35.9583 C   0  0  0  0  0  0  0  0  0  0  0  0
   32.8777  -20.3002   37.1583 O   0  0  0  0  0  0  0  0  0  0  0  0
   31.2160  -21.8499   35.0950 C   0  0  0  0  0  0  0  0  0  0  0  0
   31.6521  -23.0611   34.6583 C   0  0  0  0  0  0  0  0  0  0  0  0
   30.8566  -24.1946   34.8174 C   0  0  0  0  0  0  0  0  0  0  0  0
   29.6133  -24.1498   35.4125 C   0  0  0  0  0  0  0  0  0  0  0  0
   29.1709  -22.9080   35.8579 C   0  0  0  0  0  0  0  0  0  0  0  0
   27.5966  -22.8552   36.6097 Cl  0  0  0  0  0  0  0  0  0  0  0  0
   29.9623  -21.7937   35.6970 C   0  0  0  0  0  0  0  0  0  0  0  0
   28.7953  -25.3242   35.5744 C   0  0  0  0  0  0  0  0  0  0  0  0
   28.1239  -26.2643   35.7203 N   0  0  0  0  0  0  0  0  0  0  0  0
   31.1702  -11.9758   36.7856 O   0  0  0  0  0  0  0  0  0  0  0  0
   30.5569  -10.8123   37.1498 C   0  0  0  0  0  0  0  0  0  0  0  0
   29.2223  -11.0365   37.8017 C   0  0  0  0  0  0  0  0  0  0  0  0
   29.3322  -11.0819   39.2468 N   0  0  0  0  0  0  0  0  0  0  0  0
   28.3138  -11.4683   40.1381 C   0  0  0  0  0  0  0  0  0  0  0  0
   27.1973  -11.8168   39.6926 O   0  0  0  0  0  0  0  0  0  0  0  0
   30.2681  -10.7963   39.6679 H   0  0  0  0  0  0  0  0  0  0  0  0
   28.5340  -11.4722   41.6000 C   0  0  0  0  0  0  0  0  0  0  0  0
   28.7859  -12.8606   42.1343 C   0  0  0  0  0  0  0  0  0  0  0  0
   27.7457  -13.8435   41.7101 C   0  0  0  0  0  0  0  0  0  0  0  0
   28.8281  -12.8144   43.6450 C   0  0  0  0  0  0  0  0  0  0  0  0
   30.1738  -13.2811   41.6600 C   0  0  0  0  0  0  0  0  0  0  0  0
 10 11  1  0  0  0
 11  1  1  0  0  0
  1  2  2  0  0  0
  2  3  1  0  0  0
  3 12  1  0  0  0
 12 13  1  0  0  0
 13 14  1  0  0  0
 14 15  1  0  0  0
 15 16  1  0  0  0
 16 17  1  0  0  0
 17 18  1  0  0  0
 18 19  2  0  0  0
 17 20  1  0  0  0
 20 21  2  0  0  0
 21 22  1  0  0  0
 22 23  2  0  0  0
 23 27  1  0  0  0
 27 28  3  0  0  0
 23 24  1  0  0  0
 24 25  1  0  0  0
 24 26  2  0  0  0
  3  4  1  0  0  0
  4  5  2  0  0  0
  5  6  1  0  0  0
  6 29  1  0  0  0
 29 30  1  0  0  0
 30 31  1  0  0  0
 31 32  1  0  0  0
 32 33  1  0  0  0
 33 34  2  0  0  0
 33 36  1  0  0  0
 36 37  1  0  0  0
 37 38  1  0  0  0
 37 39  1  0  0  0
 37 40  1  0  0  0
  6  7  2  0  0  0
  7  8  1  0  0  0
  8  9  2  0  0  0
  9  1  1  0  0  0
 18 14  1  0  0  0
 26 20  1  0  0  0
  9  4  1  0  0  0
 32 35  1  0  0  0
M  END
> <minimizedAffinity>
-7.40123

> <CNNscore>
0.6182375550

> <CNNaffinity>
6.9219040871

> <CNN_VS>
4.2793812752

> <CNNaffinity_variance>
0.1602486372

$$$$
[H]c1c([H])c(N2C(=O)N(C([H])([H])C([H])([H])n3c([H])c(OC([H])([H])[H])c4c([H])c([H])c(OC([H])([H])C([H])([H])N([H])C(=O)C([H])([H])C(C([H])([H])[H])(C([H])([H])[H])C([H])([H])[H])c([H])c43)C([H])([H])C2([H])[H])c([H])c(Cl)c1C#N


 40 43  0  0  0  0  0  0  0  0999 V2000
   36.4596  -14.4594   37.3335 C   0  0  0  0  0  0  0  0  0  0  0  0
   35.4321  -13.5431   37.2661 C   0  0  0  0  0  0  0  0  0  0  0  0
   34.3638  -14.0860   36.6672 N   0  0  0  0  0  0  0  0  0  0  0  0
   34.6360  -15.3674   36.3178 C   0  0  0  0  0  0  0  0  0  0  0  0
   33.9185  -16.3596   35.6947 C   0  0  0  0  0  0  0  0  0  0  0  0
   34.4481  -17.6401   35.4454 C   0  0  0  0  0  0  0  0  0  0  0  0
   35.7377  -17.8522   35.8635 C   0  0  0  0  0  0  0  0  0  0  0  0
   36.4663  -16.8382   36.4976 C   0  0  0  0  0  0  0  0  0  0  0  0
   35.9303  -15.5973   36.7298 C   0  0  0  0  0  0  0  0  0  0  0  0
   38.5279  -13.2138   37.4853 C   0  0  0  0  0  0  0  0  0  0  0  0
   37.7329  -14.3172   37.8684 O   0  0  0  0  0  0  0  0  0  0  0  0
   33.1025  -13.4405   36.4193 C   0  0  0  0  0  0  0  0  0  0  0  0
   32.9810  -12.0666   36.9936 C   0  0  0  0  0  0  0  0  0  0  0  0
   31.8023  -11.9354   37.8227 N   0  0  0  0  0  0  0  0  0  0  0  0
   30.6805  -11.0759   37.4812 C   0  0  0  0  0  0  0  0  0  0  0  0
   29.5128  -11.8289   38.1009 C   0  0  0  0  0  0  0  0  0  0  0  0
   30.0682  -12.4130   39.2994 N   0  0  0  0  0  0  0  0  0  0  0  0
   31.4604  -12.5477   39.0590 C   0  0  0  0  0  0  0  0  0  0  0  0
   32.3039  -13.1200   39.8092 O   0  0  0  0  0  0  0  0  0  0  0  0
   29.3241  -12.7581   40.4497 C   0  0  0  0  0  0  0  0  0  0  0  0
   28.0075  -12.4555   40.6003 C   0  0  0  0  0  0  0  0  0  0  0  0
   27.3286  -12.8258   41.7600 C   0  0  0  0  0  0  0  0  0  0  0  0
   27.9414  -13.5034   42.7931 C   0  0  0  0  0  0  0  0  0  0  0  0
   29.2892  -13.8109   42.6348 C   0  0  0  0  0  0  0  0  0  0  0  0
   30.0614  -14.6677   43.9448 Cl  0  0  0  0  0  0  0  0  0  0  0  0
   29.9522  -13.4418   41.4868 C   0  0  0  0  0  0  0  0  0  0  0  0
   27.2351  -13.8837   43.9894 C   0  0  0  0  0  0  0  0  0  0  0  0
   26.6730  -14.2095   44.9557 N   0  0  0  0  0  0  0  0  0  0  0  0
   33.6711  -18.5825   34.8204 O   0  0  0  0  0  0  0  0  0  0  0  0
   32.5086  -18.4949   34.1109 C   0  0  0  0  0  0  0  0  0  0  0  0
   31.9750  -19.8372   33.6990 C   0  0  0  0  0  0  0  0  0  0  0  0
   31.7300  -20.6916   34.8445 N   0  0  0  0  0  0  0  0  0  0  0  0
   30.6274  -20.6056   35.7149 C   0  0  0  0  0  0  0  0  0  0  0  0
   29.7504  -19.7335   35.5225 O   0  0  0  0  0  0  0  0  0  0  0  0
   32.4509  -21.4505   35.0424 H   0  0  0  0  0  0  0  0  0  0  0  0
   30.4796  -21.5287   36.8602 C   0  0  0  0  0  0  0  0  0  0  0  0
   29.1099  -22.1597   36.9101 C   0  0  0  0  0  0  0  0  0  0  0  0
   28.5749  -22.4935   35.5571 C   0  0  0  0  0  0  0  0  0  0  0  0
   28.1494  -21.2150   37.5965 C   0  0  0  0  0  0  0  0  0  0  0  0
   29.2184  -23.4036   37.7870 C   0  0  0  0  0  0  0  0  0  0  0  0
 10 11  1  0  0  0
 11  1  1  0  0  0
  1  2  2  0  0  0
  2  3  1  0  0  0
  3 12  1  0  0  0
 12 13  1  0  0  0
 13 14  1  0  0  0
 14 15  1  0  0  0
 15 16  1  0  0  0
 16 17  1  0  0  0
 17 18  1  0  0  0
 18 19  2  0  0  0
 17 20  1  0  0  0
 20 21  2  0  0  0
 21 22  1  0  0  0
 22 23  2  0  0  0
 23 27  1  0  0  0
 27 28  3  0  0  0
 23 24  1  0  0  0
 24 25  1  0  0  0
 24 26  2  0  0  0
  3  4  1  0  0  0
  4  5  2  0  0  0
  5  6  1  0  0  0
  6 29  1  0  0  0
 29 30  1  0  0  0
 30 31  1  0  0  0
 31 32  1  0  0  0
 32 33  1  0  0  0
 33 34  2  0  0  0
 33 36  1  0  0  0
 36 37  1  0  0  0
 37 38  1  0  0  0
 37 39  1  0  0  0
 37 40  1  0  0  0
  6  7  2  0  0  0
  7  8  1  0  0  0
  8  9  2  0  0  0
  9  1  1  0  0  0
 18 14  1  0  0  0
 26 20  1  0  0  0
  9  4  1  0  0  0
 32 35  1  0  0  0
M  END
> <minimizedAffinity>
-7.63596

> <CNNscore>
0.6005320549

> <CNNaffinity>
6.9939374924

> <CNN_VS>
4.2000837326

> <CNNaffinity_variance>
0.0643363222

$$$$
[H]c1c([H])c(N2C(=O)N(C([H])([H])C([H])([H])n3c([H])c(OC([H])([H])[H])c4c([H])c([H])c(OC([H])([H])C([H])([H])N([H])C(=O)C([H])([H])C(C([H])([H])[H])(C([H])([H])[H])C([H])([H])[H])c([H])c43)C([H])([H])C2([H])[H])c([H])c(Cl)c1C#N


 40 43  0  0  0  0  0  0  0  0999 V2000
   36.3411  -14.3490   37.3699 C   0  0  0  0  0  0  0  0  0  0  0  0
   35.3600  -13.3896   37.2408 C   0  0  0  0  0  0  0  0  0  0  0  0
   34.2762  -13.9099   36.6498 N   0  0  0  0  0  0  0  0  0  0  0  0
   34.4919  -15.2181   36.3666 C   0  0  0  0  0  0  0  0  0  0  0  0
   33.7373  -16.2043   35.7789 C   0  0  0  0  0  0  0  0  0  0  0  0
   34.2087  -17.5190   35.6003 C   0  0  0  0  0  0  0  0  0  0  0  0
   35.4800  -17.7712   36.0507 C   0  0  0  0  0  0  0  0  0  0  0  0
   36.2466  -16.7632   36.6485 C   0  0  0  0  0  0  0  0  0  0  0  0
   35.7672  -15.4886   36.8118 C   0  0  0  0  0  0  0  0  0  0  0  0
   38.4646  -13.1970   37.4979 C   0  0  0  0  0  0  0  0  0  0  0  0
   37.6115  -14.2414   37.9198 O   0  0  0  0  0  0  0  0  0  0  0  0
   33.0512  -13.2184   36.3492 C   0  0  0  0  0  0  0  0  0  0  0  0
   32.8835  -11.9112   37.0531 C   0  0  0  0  0  0  0  0  0  0  0  0
   31.6989  -11.8991   37.8840 N   0  0  0  0  0  0  0  0  0  0  0  0
   30.5175  -11.1101   37.5745 C   0  0  0  0  0  0  0  0  0  0  0  0
   29.4078  -11.9699   38.1610 C   0  0  0  0  0  0  0  0  0  0  0  0
   30.0048  -12.5596   39.3366 N   0  0  0  0  0  0  0  0  0  0  0  0
   31.4030  -12.5834   39.0942 C   0  0  0  0  0  0  0  0  0  0  0  0
   32.2863  -13.1225   39.8229 O   0  0  0  0  0  0  0  0  0  0  0  0
   29.2885  -13.0034   40.4705 C   0  0  0  0  0  0  0  0  0  0  0  0
   29.1241  -12.2465   41.5875 C   0  0  0  0  0  0  0  0  0  0  0  0
   28.4041  -12.7418   42.6734 C   0  0  0  0  0  0  0  0  0  0  0  0
   27.8328  -13.9970   42.6734 C   0  0  0  0  0  0  0  0  0  0  0  0
   28.0036  -14.7684   41.5280 C   0  0  0  0  0  0  0  0  0  0  0  0
   27.2799  -16.3567   41.5321 Cl  0  0  0  0  0  0  0  0  0  0  0  0
   28.7159  -14.2721   40.4602 C   0  0  0  0  0  0  0  0  0  0  0  0
   27.0897  -14.5039   43.7982 C   0  0  0  0  0  0  0  0  0  0  0  0
   26.4912  -14.9327   44.7004 N   0  0  0  0  0  0  0  0  0  0  0  0
   33.3970  -18.4528   35.0073 O   0  0  0  0  0  0  0  0  0  0  0  0
   32.4394  -19.2892   35.5032 C   0  0  0  0  0  0  0  0  0  0  0  0
   32.7486  -20.7387   35.2591 C   0  0  0  0  0  0  0  0  0  0  0  0
   34.0432  -21.1089   35.7968 N   0  0  0  0  0  0  0  0  0  0  0  0
   34.2780  -21.6664   37.0675 C   0  0  0  0  0  0  0  0  0  0  0  0
   33.3158  -21.8857   37.8374 O   0  0  0  0  0  0  0  0  0  0  0  0
   34.8898  -20.9421   35.1721 H   0  0  0  0  0  0  0  0  0  0  0  0
   35.6456  -22.0020   37.5177 C   0  0  0  0  0  0  0  0  0  0  0  0
   36.1749  -21.0076   38.5215 C   0  0  0  0  0  0  0  0  0  0  0  0
   35.1997  -19.9207   38.8316 C   0  0  0  0  0  0  0  0  0  0  0  0
   37.4458  -20.3867   37.9872 C   0  0  0  0  0  0  0  0  0  0  0  0
   36.5515  -21.7903   39.7759 C   0  0  0  0  0  0  0  0  0  0  0  0
 10 11  1  0  0  0
 11  1  1  0  0  0
  1  2  2  0  0  0
  2  3  1  0  0  0
  3 12  1  0  0  0
 12 13  1  0  0  0
 13 14  1  0  0  0
 14 15  1  0  0  0
 15 16  1  0  0  0
 16 17  1  0  0  0
 17 18  1  0  0  0
 18 19  2  0  0  0
 17 20  1  0  0  0
 20 21  2  0  0  0
 21 22  1  0  0  0
 22 23  2  0  0  0
 23 27  1  0  0  0
 27 28  3  0  0  0
 23 24  1  0  0  0
 24 25  1  0  0  0
 24 26  2  0  0  0
  3  4  1  0  0  0
  4  5  2  0  0  0
  5  6  1  0  0  0
  6 29  1  0  0  0
 29 30  1  0  0  0
 30 31  1  0  0  0
 31 32  1  0  0  0
 32 33  1  0  0  0
 33 34  2  0  0  0
 33 36  1  0  0  0
 36 37  1  0  0  0
 37 38  1  0  0  0
 37 39  1  0  0  0
 37 40  1  0  0  0
  6  7  2  0  0  0
  7  8  1  0  0  0
  8  9  2  0  0  0
  9  1  1  0  0  0
 18 14  1  0  0  0
 26 20  1  0  0  0
  9  4  1  0  0  0
 32 35  1  0  0  0
M  END
> <minimizedAffinity>
-6.97165

> <CNNscore>
0.4647222757

> <CNNaffinity>
6.8795447350

> <CNN_VS>
3.1970777512

> <CNNaffinity_variance>
0.0801806301

$$$$
[H]c1c([H])c(N2C(=O)N(C([H])([H])C([H])([H])n3c([H])c(OC([H])([H])[H])c4c([H])c([H])c(OC([H])([H])C([H])([H])N([H])C(=O)C([H])([H])C(C([H])([H])[H])(C([H])([H])[H])C([H])([H])[H])c([H])c43)C([H])([H])C2([H])[H])c([H])c(Cl)c1C#N


 40 43  0  0  0  0  0  0  0  0999 V2000
   37.3274  -21.5429   42.3304 C   0  0  0  0  0  0  0  0  0  0  0  0
   37.0678  -22.1548   41.1229 C   0  0  0  0  0  0  0  0  0  0  0  0
   35.8466  -21.8204   40.6855 N   0  0  0  0  0  0  0  0  0  0  0  0
   35.2546  -20.9842   41.5735 C   0  0  0  0  0  0  0  0  0  0  0  0
   34.0359  -20.3518   41.6226 C   0  0  0  0  0  0  0  0  0  0  0  0
   33.6569  -19.5110   42.6865 C   0  0  0  0  0  0  0  0  0  0  0  0
   34.5808  -19.3507   43.6882 C   0  0  0  0  0  0  0  0  0  0  0  0
   35.8217  -19.9976   43.6352 C   0  0  0  0  0  0  0  0  0  0  0  0
   36.1697  -20.8131   42.5889 C   0  0  0  0  0  0  0  0  0  0  0  0
   38.5525  -22.6180   44.1181 C   0  0  0  0  0  0  0  0  0  0  0  0
   38.4616  -21.6140   43.1281 O   0  0  0  0  0  0  0  0  0  0  0  0
   35.2263  -22.2582   39.4637 C   0  0  0  0  0  0  0  0  0  0  0  0
   36.1017  -22.1779   38.2557 C   0  0  0  0  0  0  0  0  0  0  0  0
   36.5046  -20.8165   37.9763 N   0  0  0  0  0  0  0  0  0  0  0  0
   37.8906  -20.4190   37.7892 C   0  0  0  0  0  0  0  0  0  0  0  0
   37.7523  -19.2633   36.8094 C   0  0  0  0  0  0  0  0  0  0  0  0
   36.5139  -18.6257   37.1913 N   0  0  0  0  0  0  0  0  0  0  0  0
   35.7363  -19.6305   37.8236 C   0  0  0  0  0  0  0  0  0  0  0  0
   34.5354  -19.5246   38.2090 O   0  0  0  0  0  0  0  0  0  0  0  0
   36.1978  -17.2689   36.9567 C   0  0  0  0  0  0  0  0  0  0  0  0
   35.0924  -16.8720   36.2723 C   0  0  0  0  0  0  0  0  0  0  0  0
   34.8356  -15.5161   36.0759 C   0  0  0  0  0  0  0  0  0  0  0  0
   35.6694  -14.5270   36.5540 C   0  0  0  0  0  0  0  0  0  0  0  0
   36.7997  -14.9378   37.2538 C   0  0  0  0  0  0  0  0  0  0  0  0
   37.8529  -13.6833   37.8565 Cl  0  0  0  0  0  0  0  0  0  0  0  0
   37.0461  -16.2784   37.4434 C   0  0  0  0  0  0  0  0  0  0  0  0
   35.3993  -13.1273   36.3482 C   0  0  0  0  0  0  0  0  0  0  0  0
   35.1987  -11.9912   36.1906 N   0  0  0  0  0  0  0  0  0  0  0  0
   32.4236  -18.9102   42.6662 O   0  0  0  0  0  0  0  0  0  0  0  0
   31.5269  -18.6135   43.6513 C   0  0  0  0  0  0  0  0  0  0  0  0
   30.1684  -18.2613   43.1158 C   0  0  0  0  0  0  0  0  0  0  0  0
   30.2211  -17.1118   42.2337 N   0  0  0  0  0  0  0  0  0  0  0  0
   29.1105  -16.4374   41.6930 C   0  0  0  0  0  0  0  0  0  0  0  0
   27.9530  -16.8231   41.9720 O   0  0  0  0  0  0  0  0  0  0  0  0
   31.1881  -16.7483   41.9734 H   0  0  0  0  0  0  0  0  0  0  0  0
   29.2806  -15.2746   40.7959 C   0  0  0  0  0  0  0  0  0  0  0  0
   29.2831  -13.9683   41.5509 C   0  0  0  0  0  0  0  0  0  0  0  0
   29.5900  -14.1370   43.0020 C   0  0  0  0  0  0  0  0  0  0  0  0
   27.9302  -13.3077   41.4106 C   0  0  0  0  0  0  0  0  0  0  0  0
   30.2996  -13.0563   40.8706 C   0  0  0  0  0  0  0  0  0  0  0  0
 10 11  1  0  0  0
 11  1  1  0  0  0
  1  2  2  0  0  0
  2  3  1  0  0  0
  3 12  1  0  0  0
 12 13  1  0  0  0
 13 14  1  0  0  0
 14 15  1  0  0  0
 15 16  1  0  0  0
 16 17  1  0  0  0
 17 18  1  0  0  0
 18 19  2  0  0  0
 17 20  1  0  0  0
 20 21  2  0  0  0
 21 22  1  0  0  0
 22 23  2  0  0  0
 23 27  1  0  0  0
 27 28  3  0  0  0
 23 24  1  0  0  0
 24 25  1  0  0  0
 24 26  2  0  0  0
  3  4  1  0  0  0
  4  5  2  0  0  0
  5  6  1  0  0  0
  6 29  1  0  0  0
 29 30  1  0  0  0
 30 31  1  0  0  0
 31 32  1  0  0  0
 32 33  1  0  0  0
 33 34  2  0  0  0
 33 36  1  0  0  0
 36 37  1  0  0  0
 37 38  1  0  0  0
 37 39  1  0  0  0
 37 40  1  0  0  0
  6  7  2  0  0  0
  7  8  1  0  0  0
  8  9  2  0  0  0
  9  1  1  0  0  0
 18 14  1  0  0  0
 26 20  1  0  0  0
  9  4  1  0  0  0
 32 35  1  0  0  0
M  END
> <minimizedAffinity>
-6.36861

> <CNNscore>
0.4537914395

> <CNNaffinity>
6.0823192596

> <CNN_VS>
2.7601044178

> <CNNaffinity_variance>
0.6587393880

$$$$
[H]c1c([H])c(N2C(=O)N(C([H])([H])C([H])([H])n3c([H])c(OC([H])([H])[H])c4c([H])c([H])c(OC([H])([H])C([H])([H])N([H])C(=O)C([H])([H])C(C([H])([H])[H])(C([H])([H])[H])C([H])([H])[H])c([H])c43)C([H])([H])C2([H])[H])c([H])c(Cl)c1C#N


 40 43  0  0  0  0  0  0  0  0999 V2000
   36.9307  -17.9536   36.3295 C   0  0  0  0  0  0  0  0  0  0  0  0
   35.9748  -18.5005   35.5007 C   0  0  0  0  0  0  0  0  0  0  0  0
   34.9534  -17.6482   35.3435 N   0  0  0  0  0  0  0  0  0  0  0  0
   35.1874  -16.5164   36.0524 C   0  0  0  0  0  0  0  0  0  0  0  0
   34.4904  -15.3477   36.2418 C   0  0  0  0  0  0  0  0  0  0  0  0
   34.9694  -14.2979   37.0486 C   0  0  0  0  0  0  0  0  0  0  0  0
   36.1878  -14.5026   37.6456 C   0  0  0  0  0  0  0  0  0  0  0  0
   36.8950  -15.6955   37.4509 C   0  0  0  0  0  0  0  0  0  0  0  0
   36.4088  -16.7057   36.6609 C   0  0  0  0  0  0  0  0  0  0  0  0
   38.9773  -19.1395   35.8217 C   0  0  0  0  0  0  0  0  0  0  0  0
   38.1387  -18.4897   36.7550 O   0  0  0  0  0  0  0  0  0  0  0  0
   33.7740  -17.8641   34.5488 C   0  0  0  0  0  0  0  0  0  0  0  0
   33.4984  -19.2945   34.2167 C   0  0  0  0  0  0  0  0  0  0  0  0
   32.2497  -19.7463   34.7915 N   0  0  0  0  0  0  0  0  0  0  0  0
   31.1749  -18.8433   35.1700 C   0  0  0  0  0  0  0  0  0  0  0  0
   29.9457  -19.7088   34.9359 C   0  0  0  0  0  0  0  0  0  0  0  0
   30.3805  -21.0395   35.2914 N   0  0  0  0  0  0  0  0  0  0  0  0
   31.7873  -21.0534   35.1042 C   0  0  0  0  0  0  0  0  0  0  0  0
   32.5506  -22.0589   35.1943 O   0  0  0  0  0  0  0  0  0  0  0  0
   29.5289  -22.0770   35.7320 C   0  0  0  0  0  0  0  0  0  0  0  0
   29.6413  -23.3620   35.3028 C   0  0  0  0  0  0  0  0  0  0  0  0
   28.7700  -24.3410   35.7775 C   0  0  0  0  0  0  0  0  0  0  0  0
   27.7704  -24.0657   36.6869 C   0  0  0  0  0  0  0  0  0  0  0  0
   27.6590  -22.7491   37.1233 C   0  0  0  0  0  0  0  0  0  0  0  0
   26.3921  -22.4045   38.2734 Cl  0  0  0  0  0  0  0  0  0  0  0  0
   28.5230  -21.7884   36.6498 C   0  0  0  0  0  0  0  0  0  0  0  0
   26.8728  -25.0813   37.1742 C   0  0  0  0  0  0  0  0  0  0  0  0
   26.1588  -25.9045   37.5846 N   0  0  0  0  0  0  0  0  0  0  0  0
   34.2193  -13.1577   37.1892 O   0  0  0  0  0  0  0  0  0  0  0  0
   32.8835  -12.9115   37.0568 C   0  0  0  0  0  0  0  0  0  0  0  0
   32.2328  -12.5162   38.3517 C   0  0  0  0  0  0  0  0  0  0  0  0
   30.7943  -12.3971   38.2147 N   0  0  0  0  0  0  0  0  0  0  0  0
   30.1021  -11.2598   37.7586 C   0  0  0  0  0  0  0  0  0  0  0  0
   30.7404  -10.2362   37.4250 O   0  0  0  0  0  0  0  0  0  0  0  0
   30.2127  -13.2478   38.4847 H   0  0  0  0  0  0  0  0  0  0  0  0
   28.6269  -11.2460   37.6634 C   0  0  0  0  0  0  0  0  0  0  0  0
   27.9774  -10.7932   38.9478 C   0  0  0  0  0  0  0  0  0  0  0  0
   26.4960  -10.6514   38.8307 C   0  0  0  0  0  0  0  0  0  0  0  0
   28.5649   -9.4632   39.3627 C   0  0  0  0  0  0  0  0  0  0  0  0
   28.3551  -11.8055   40.0251 C   0  0  0  0  0  0  0  0  0  0  0  0
 10 11  1  0  0  0
 11  1  1  0  0  0
  1  2  2  0  0  0
  2  3  1  0  0  0
  3 12  1  0  0  0
 12 13  1  0  0  0
 13 14  1  0  0  0
 14 15  1  0  0  0
 15 16  1  0  0  0
 16 17  1  0  0  0
 17 18  1  0  0  0
 18 19  2  0  0  0
 17 20  1  0  0  0
 20 21  2  0  0  0
 21 22  1  0  0  0
 22 23  2  0  0  0
 23 27  1  0  0  0
 27 28  3  0  0  0
 23 24  1  0  0  0
 24 25  1  0  0  0
 24 26  2  0  0  0
  3  4  1  0  0  0
  4  5  2  0  0  0
  5  6  1  0  0  0
  6 29  1  0  0  0
 29 30  1  0  0  0
 30 31  1  0  0  0
 31 32  1  0  0  0
 32 33  1  0  0  0
 33 34  2  0  0  0
 33 36  1  0  0  0
 36 37  1  0  0  0
 37 38  1  0  0  0
 37 39  1  0  0  0
 37 40  1  0  0  0
  6  7  2  0  0  0
  7  8  1  0  0  0
  8  9  2  0  0  0
  9  1  1  0  0  0
 18 14  1  0  0  0
 26 20  1  0  0  0
  9  4  1  0  0  0
 32 35  1  0  0  0
M  END
> <minimizedAffinity>
-8.21189

> <CNNscore>
0.4329127371

> <CNNaffinity>
6.4034194946

> <CNN_VS>
2.7721219063

> <CNNaffinity_variance>
0.3574254215

$$$$
[H]c1c([H])c(N2C(=O)N(C([H])([H])C([H])([H])n3c([H])c(OC([H])([H])[H])c4c([H])c([H])c(OC([H])([H])C([H])([H])N([H])C(=O)C([H])([H])C(C([H])([H])[H])(C([H])([H])[H])C([H])([H])[H])c([H])c43)C([H])([H])C2([H])[H])c([H])c(Cl)c1C#N


 40 43  0  0  0  0  0  0  0  0999 V2000
   36.2041  -16.8097   35.3639 C   0  0  0  0  0  0  0  0  0  0  0  0
   37.2557  -17.5635   34.8887 C   0  0  0  0  0  0  0  0  0  0  0  0
   36.8046  -18.7068   34.3560 N   0  0  0  0  0  0  0  0  0  0  0  0
   35.4533  -18.7569   34.4550 C   0  0  0  0  0  0  0  0  0  0  0  0
   34.5024  -19.6751   34.0804 C   0  0  0  0  0  0  0  0  0  0  0  0
   33.1260  -19.4796   34.3034 C   0  0  0  0  0  0  0  0  0  0  0  0
   32.7751  -18.3066   34.9229 C   0  0  0  0  0  0  0  0  0  0  0  0
   33.7472  -17.3734   35.3040 C   0  0  0  0  0  0  0  0  0  0  0  0
   35.0832  -17.5850   35.0774 C   0  0  0  0  0  0  0  0  0  0  0  0
   36.5317  -15.4854   37.3617 C   0  0  0  0  0  0  0  0  0  0  0  0
   36.2203  -15.5686   35.9860 O   0  0  0  0  0  0  0  0  0  0  0  0
   37.6013  -19.7442   33.7574 C   0  0  0  0  0  0  0  0  0  0  0  0
   39.0509  -19.7035   34.1166 C   0  0  0  0  0  0  0  0  0  0  0  0
   39.2895  -20.2374   35.4403 N   0  0  0  0  0  0  0  0  0  0  0  0
   39.0369  -21.6241   35.7966 C   0  0  0  0  0  0  0  0  0  0  0  0
   40.0968  -21.8691   36.8602 C   0  0  0  0  0  0  0  0  0  0  0  0
   40.2008  -20.6043   37.5499 N   0  0  0  0  0  0  0  0  0  0  0  0
   39.7839  -19.6170   36.6196 C   0  0  0  0  0  0  0  0  0  0  0  0
   39.8293  -18.3623   36.7795 O   0  0  0  0  0  0  0  0  0  0  0  0
   40.6357  -20.4452   38.8846 C   0  0  0  0  0  0  0  0  0  0  0  0
   39.9617  -20.9530   39.9503 C   0  0  0  0  0  0  0  0  0  0  0  0
   40.4447  -20.7627   41.2439 C   0  0  0  0  0  0  0  0  0  0  0  0
   41.6052  -20.0654   41.5066 C   0  0  0  0  0  0  0  0  0  0  0  0
   42.2917  -19.5473   40.4129 C   0  0  0  0  0  0  0  0  0  0  0  0
   43.7594  -18.6646   40.7494 Cl  0  0  0  0  0  0  0  0  0  0  0  0
   41.8083  -19.7395   39.1389 C   0  0  0  0  0  0  0  0  0  0  0  0
   42.0998  -19.8717   42.8454 C   0  0  0  0  0  0  0  0  0  0  0  0
   42.5186  -19.7135   43.9204 N   0  0  0  0  0  0  0  0  0  0  0  0
   32.2332  -20.4398   33.8991 O   0  0  0  0  0  0  0  0  0  0  0  0
   32.0471  -21.7397   34.2705 C   0  0  0  0  0  0  0  0  0  0  0  0
   31.6061  -21.8800   35.6995 C   0  0  0  0  0  0  0  0  0  0  0  0
   32.6670  -22.4005   36.5396 N   0  0  0  0  0  0  0  0  0  0  0  0
   33.3623  -21.6802   37.5287 C   0  0  0  0  0  0  0  0  0  0  0  0
   33.0729  -20.4817   37.7435 O   0  0  0  0  0  0  0  0  0  0  0  0
   32.9426  -23.4189   36.3919 H   0  0  0  0  0  0  0  0  0  0  0  0
   34.4351  -22.3115   38.3265 C   0  0  0  0  0  0  0  0  0  0  0  0
   35.5334  -21.3376   38.6756 C   0  0  0  0  0  0  0  0  0  0  0  0
   35.1260  -20.3538   39.7217 C   0  0  0  0  0  0  0  0  0  0  0  0
   35.9480  -20.5852   37.4314 C   0  0  0  0  0  0  0  0  0  0  0  0
   36.7382  -22.1591   39.1248 C   0  0  0  0  0  0  0  0  0  0  0  0
 10 11  1  0  0  0
 11  1  1  0  0  0
  1  2  2  0  0  0
  2  3  1  0  0  0
  3 12  1  0  0  0
 12 13  1  0  0  0
 13 14  1  0  0  0
 14 15  1  0  0  0
 15 16  1  0  0  0
 16 17  1  0  0  0
 17 18  1  0  0  0
 18 19  2  0  0  0
 17 20  1  0  0  0
 20 21  2  0  0  0
 21 22  1  0  0  0
 22 23  2  0  0  0
 23 27  1  0  0  0
 27 28  3  0  0  0
 23 24  1  0  0  0
 24 25  1  0  0  0
 24 26  2  0  0  0
  3  4  1  0  0  0
  4  5  2  0  0  0
  5  6  1  0  0  0
  6 29  1  0  0  0
 29 30  1  0  0  0
 30 31  1  0  0  0
 31 32  1  0  0  0
 32 33  1  0  0  0
 33 34  2  0  0  0
 33 36  1  0  0  0
 36 37  1  0  0  0
 37 38  1  0  0  0
 37 39  1  0  0  0
 37 40  1  0  0  0
  6  7  2  0  0  0
  7  8  1  0  0  0
  8  9  2  0  0  0
  9  1  1  0  0  0
 18 14  1  0  0  0
 26 20  1  0  0  0
  9  4  1  0  0  0
 32 35  1  0  0  0
M  END
> <minimizedAffinity>
-5.63987

> <CNNscore>
0.4309766591

> <CNNaffinity>
6.1522493362

> <CNN_VS>
2.6514759064

> <CNNaffinity_variance>
0.2850746512

$$$$
[H]c1c([H])c(N2C(=O)N(C([H])([H])C([H])([H])n3c([H])c(OC([H])([H])[H])c4c([H])c([H])c(OC([H])([H])C([H])([H])N([H])C(=O)C([H])([H])C(C([H])([H])[H])(C([H])([H])[H])C([H])([H])[H])c([H])c43)C([H])([H])C2([H])[H])c([H])c(Cl)c1C#N


 40 43  0  0  0  0  0  0  0  0999 V2000
   34.2531  -18.9668   34.5011 C   0  0  0  0  0  0  0  0  0  0  0  0
   35.4858  -19.4153   34.0776 C   0  0  0  0  0  0  0  0  0  0  0  0
   36.4284  -18.5003   34.3400 N   0  0  0  0  0  0  0  0  0  0  0  0
   35.8665  -17.4222   34.9401 C   0  0  0  0  0  0  0  0  0  0  0  0
   36.3573  -16.2288   35.4116 C   0  0  0  0  0  0  0  0  0  0  0  0
   35.5386  -15.2525   36.0107 C   0  0  0  0  0  0  0  0  0  0  0  0
   34.2039  -15.5573   36.1028 C   0  0  0  0  0  0  0  0  0  0  0  0
   33.7070  -16.7744   35.6203 C   0  0  0  0  0  0  0  0  0  0  0  0
   34.5232  -17.7111   35.0394 C   0  0  0  0  0  0  0  0  0  0  0  0
   32.8264  -20.6507   33.5103 C   0  0  0  0  0  0  0  0  0  0  0  0
   33.0152  -19.5908   34.4254 O   0  0  0  0  0  0  0  0  0  0  0  0
   37.8326  -18.6113   34.0482 C   0  0  0  0  0  0  0  0  0  0  0  0
   38.3280  -20.0118   33.8883 C   0  0  0  0  0  0  0  0  0  0  0  0
   39.0866  -20.4459   35.0415 N   0  0  0  0  0  0  0  0  0  0  0  0
   40.1026  -21.4842   34.9810 C   0  0  0  0  0  0  0  0  0  0  0  0
   41.0690  -21.0364   36.0673 C   0  0  0  0  0  0  0  0  0  0  0  0
   40.2166  -20.4513   37.0760 N   0  0  0  0  0  0  0  0  0  0  0  0
   39.0483  -20.0183   36.3964 C   0  0  0  0  0  0  0  0  0  0  0  0
   38.0929  -19.3499   36.8887 O   0  0  0  0  0  0  0  0  0  0  0  0
   40.5358  -20.3588   38.4491 C   0  0  0  0  0  0  0  0  0  0  0  0
   39.8127  -20.9737   39.4221 C   0  0  0  0  0  0  0  0  0  0  0  0
   40.1810  -20.8448   40.7603 C   0  0  0  0  0  0  0  0  0  0  0  0
   41.2732  -20.1038   41.1602 C   0  0  0  0  0  0  0  0  0  0  0  0
   42.0104  -19.4760   40.1608 C   0  0  0  0  0  0  0  0  0  0  0  0
   43.3914  -18.5384   40.6710 Cl  0  0  0  0  0  0  0  0  0  0  0  0
   41.6402  -19.6083   38.8421 C   0  0  0  0  0  0  0  0  0  0  0  0
   41.6495  -19.9738   42.5444 C   0  0  0  0  0  0  0  0  0  0  0  0
   41.9485  -19.8490   43.6628 N   0  0  0  0  0  0  0  0  0  0  0  0
   36.0997  -14.0844   36.4615 O   0  0  0  0  0  0  0  0  0  0  0  0
   35.5864  -12.8381   36.6757 C   0  0  0  0  0  0  0  0  0  0  0  0
   34.3303  -12.8591   37.4991 C   0  0  0  0  0  0  0  0  0  0  0  0
   33.3501  -11.9112   37.0063 N   0  0  0  0  0  0  0  0  0  0  0  0
   32.0739  -11.6861   37.5554 C   0  0  0  0  0  0  0  0  0  0  0  0
   31.7074  -12.3336   38.5618 O   0  0  0  0  0  0  0  0  0  0  0  0
   33.6232  -11.3360   36.1522 H   0  0  0  0  0  0  0  0  0  0  0  0
   31.1488  -10.6947   36.9664 C   0  0  0  0  0  0  0  0  0  0  0  0
   31.5744   -9.2763   37.2557 C   0  0  0  0  0  0  0  0  0  0  0  0
   30.6483   -8.5716   38.1905 C   0  0  0  0  0  0  0  0  0  0  0  0
   31.6440   -8.5014   35.9592 C   0  0  0  0  0  0  0  0  0  0  0  0
   32.9915   -9.3368   37.8181 C   0  0  0  0  0  0  0  0  0  0  0  0
 10 11  1  0  0  0
 11  1  1  0  0  0
  1  2  2  0  0  0
  2  3  1  0  0  0
  3 12  1  0  0  0
 12 13  1  0  0  0
 13 14  1  0  0  0
 14 15  1  0  0  0
 15 16  1  0  0  0
 16 17  1  0  0  0
 17 18  1  0  0  0
 18 19  2  0  0  0
 17 20  1  0  0  0
 20 21  2  0  0  0
 21 22  1  0  0  0
 22 23  2  0  0  0
 23 27  1  0  0  0
 27 28  3  0  0  0
 23 24  1  0  0  0
 24 25  1  0  0  0
 24 26  2  0  0  0
  3  4  1  0  0  0
  4  5  2  0  0  0
  5  6  1  0  0  0
  6 29  1  0  0  0
 29 30  1  0  0  0
 30 31  1  0  0  0
 31 32  1  0  0  0
 32 33  1  0  0  0
 33 34  2  0  0  0
 33 36  1  0  0  0
 36 37  1  0  0  0
 37 38  1  0  0  0
 37 39  1  0  0  0
 37 40  1  0  0  0
  6  7  2  0  0  0
  7  8  1  0  0  0
  8  9  2  0  0  0
  9  1  1  0  0  0
 18 14  1  0  0  0
 26 20  1  0  0  0
  9  4  1  0  0  0
 32 35  1  0  0  0
M  END
> <minimizedAffinity>
-6.65119

> <CNNscore>
0.4294689894

> <CNNaffinity>
6.5191164017

> <CNN_VS>
2.7997584343

> <CNNaffinity_variance>
0.0488054566

$$$$
[H]c1c([H])c(N2C(=O)N(C([H])([H])C([H])([H])n3c([H])c(OC([H])([H])[H])c4c([H])c([H])c(OC([H])([H])C([H])([H])N([H])C(=O)C([H])([H])C(C([H])([H])[H])(C([H])([H])[H])C([H])([H])[H])c([H])c43)C([H])([H])C2([H])[H])c([H])c(Cl)c1C#N


 40 43  0  0  0  0  0  0  0  0999 V2000
   35.5157  -21.3352   38.4163 C   0  0  0  0  0  0  0  0  0  0  0  0
   35.9255  -21.5375   37.1159 C   0  0  0  0  0  0  0  0  0  0  0  0
   37.2554  -21.6910   37.0663 N   0  0  0  0  0  0  0  0  0  0  0  0
   37.7745  -21.5977   38.3153 C   0  0  0  0  0  0  0  0  0  0  0  0
   39.0465  -21.6776   38.8285 C   0  0  0  0  0  0  0  0  0  0  0  0
   39.3227  -21.5439   40.2026 C   0  0  0  0  0  0  0  0  0  0  0  0
   38.2405  -21.3272   41.0179 C   0  0  0  0  0  0  0  0  0  0  0  0
   36.9455  -21.2455   40.4911 C   0  0  0  0  0  0  0  0  0  0  0  0
   36.6996  -21.3782   39.1484 C   0  0  0  0  0  0  0  0  0  0  0  0
   33.3442  -22.2251   39.0036 C   0  0  0  0  0  0  0  0  0  0  0  0
   34.2359  -21.1327   38.9151 O   0  0  0  0  0  0  0  0  0  0  0  0
   38.0458  -21.9249   35.8875 C   0  0  0  0  0  0  0  0  0  0  0  0
   38.8408  -20.7473   35.4253 C   0  0  0  0  0  0  0  0  0  0  0  0
   37.9964  -19.6027   35.1591 N   0  0  0  0  0  0  0  0  0  0  0  0
   37.2972  -19.4052   33.8998 C   0  0  0  0  0  0  0  0  0  0  0  0
   36.0540  -18.6525   34.3499 C   0  0  0  0  0  0  0  0  0  0  0  0
   36.5192  -17.8265   35.4396 N   0  0  0  0  0  0  0  0  0  0  0  0
   37.6581  -18.4860   35.9706 C   0  0  0  0  0  0  0  0  0  0  0  0
   38.3039  -18.1589   37.0089 O   0  0  0  0  0  0  0  0  0  0  0  0
   35.9196  -16.6140   35.8474 C   0  0  0  0  0  0  0  0  0  0  0  0
   34.5794  -16.3937   35.7930 C   0  0  0  0  0  0  0  0  0  0  0  0
   34.0490  -15.1748   36.2125 C   0  0  0  0  0  0  0  0  0  0  0  0
   34.8368  -14.1503   36.6940 C   0  0  0  0  0  0  0  0  0  0  0  0
   36.2081  -14.3801   36.7478 C   0  0  0  0  0  0  0  0  0  0  0  0
   37.2018  -13.0809   37.3570 Cl  0  0  0  0  0  0  0  0  0  0  0  0
   36.7238  -15.5862   36.3318 C   0  0  0  0  0  0  0  0  0  0  0  0
   34.2836  -12.8927   37.1262 C   0  0  0  0  0  0  0  0  0  0  0  0
   33.8181  -11.8818   37.4688 N   0  0  0  0  0  0  0  0  0  0  0  0
   40.6186  -21.6381   40.6434 O   0  0  0  0  0  0  0  0  0  0  0  0
   41.7186  -22.2713   40.1420 C   0  0  0  0  0  0  0  0  0  0  0  0
   42.8694  -21.3366   39.9005 C   0  0  0  0  0  0  0  0  0  0  0  0
   42.4573  -20.1577   39.1639 N   0  0  0  0  0  0  0  0  0  0  0  0
   42.2282  -20.0918   37.7769 C   0  0  0  0  0  0  0  0  0  0  0  0
   42.3755  -21.1165   37.0734 O   0  0  0  0  0  0  0  0  0  0  0  0
   42.3169  -19.2634   39.7256 H   0  0  0  0  0  0  0  0  0  0  0  0
   41.8144  -18.8305   37.1263 C   0  0  0  0  0  0  0  0  0  0  0  0
   42.9187  -18.2316   36.2906 C   0  0  0  0  0  0  0  0  0  0  0  0
   42.7682  -18.5234   34.8344 C   0  0  0  0  0  0  0  0  0  0  0  0
   44.2504  -18.7703   36.7624 C   0  0  0  0  0  0  0  0  0  0  0  0
   42.9228  -16.7295   36.5585 C   0  0  0  0  0  0  0  0  0  0  0  0
 10 11  1  0  0  0
 11  1  1  0  0  0
  1  2  2  0  0  0
  2  3  1  0  0  0
  3 12  1  0  0  0
 12 13  1  0  0  0
 13 14  1  0  0  0
 14 15  1  0  0  0
 15 16  1  0  0  0
 16 17  1  0  0  0
 17 18  1  0  0  0
 18 19  2  0  0  0
 17 20  1  0  0  0
 20 21  2  0  0  0
 21 22  1  0  0  0
 22 23  2  0  0  0
 23 27  1  0  0  0
 27 28  3  0  0  0
 23 24  1  0  0  0
 24 25  1  0  0  0
 24 26  2  0  0  0
  3  4  1  0  0  0
  4  5  2  0  0  0
  5  6  1  0  0  0
  6 29  1  0  0  0
 29 30  1  0  0  0
 30 31  1  0  0  0
 31 32  1  0  0  0
 32 33  1  0  0  0
 33 34  2  0  0  0
 33 36  1  0  0  0
 36 37  1  0  0  0
 37 38  1  0  0  0
 37 39  1  0  0  0
 37 40  1  0  0  0
  6  7  2  0  0  0
  7  8  1  0  0  0
  8  9  2  0  0  0
  9  1  1  0  0  0
 18 14  1  0  0  0
 26 20  1  0  0  0
  9  4  1  0  0  0
 32 35  1  0  0  0
M  END
> <minimizedAffinity>
-5.55601

> <CNNscore>
0.4256957769

> <CNNaffinity>
6.5578398705

> <CNN_VS>
2.7916448116

> <CNNaffinity_variance>
0.1298872232

$$$$
[H]c1c([H])c(N2C(=O)N(C([H])([H])C([H])([H])n3c([H])c(OC([H])([H])[H])c4c([H])c([H])c(OC([H])([H])C([H])([H])N([H])C(=O)C([H])([H])C(C([H])([H])[H])(C([H])([H])[H])C([H])([H])[H])c([H])c43)C([H])([H])C2([H])[H])c([H])c(Cl)c1C#N


 40 43  0  0  0  0  0  0  0  0999 V2000
   36.3674  -21.7936   41.5568 C   0  0  0  0  0  0  0  0  0  0  0  0
   36.3048  -22.1998   40.2411 C   0  0  0  0  0  0  0  0  0  0  0  0
   37.4843  -22.0029   39.6374 N   0  0  0  0  0  0  0  0  0  0  0  0
   38.3652  -21.4651   40.5165 C   0  0  0  0  0  0  0  0  0  0  0  0
   39.6795  -21.0737   40.4319 C   0  0  0  0  0  0  0  0  0  0  0  0
   40.3840  -20.5312   41.5236 C   0  0  0  0  0  0  0  0  0  0  0  0
   39.6817  -20.4115   42.6963 C   0  0  0  0  0  0  0  0  0  0  0  0
   38.3419  -20.8106   42.7785 C   0  0  0  0  0  0  0  0  0  0  0  0
   37.6749  -21.3363   41.7017 C   0  0  0  0  0  0  0  0  0  0  0  0
   35.3370  -22.8960   43.4477 C   0  0  0  0  0  0  0  0  0  0  0  0
   35.3818  -21.8189   42.5343 O   0  0  0  0  0  0  0  0  0  0  0  0
   37.8057  -22.3071   38.2687 C   0  0  0  0  0  0  0  0  0  0  0  0
   36.7558  -21.9175   37.2796 C   0  0  0  0  0  0  0  0  0  0  0  0
   36.8917  -20.5360   36.8711 N   0  0  0  0  0  0  0  0  0  0  0  0
   37.8435  -20.0934   35.8651 C   0  0  0  0  0  0  0  0  0  0  0  0
   37.1161  -18.9068   35.2507 C   0  0  0  0  0  0  0  0  0  0  0  0
   36.4040  -18.3184   36.3610 N   0  0  0  0  0  0  0  0  0  0  0  0
   36.2037  -19.3671   37.2960 C   0  0  0  0  0  0  0  0  0  0  0  0
   35.5219  -19.3090   38.3607 O   0  0  0  0  0  0  0  0  0  0  0  0
   36.0134  -16.9632   36.4434 C   0  0  0  0  0  0  0  0  0  0  0  0
   34.7930  -16.5170   36.0443 C   0  0  0  0  0  0  0  0  0  0  0  0
   34.4675  -15.1661   36.1534 C   0  0  0  0  0  0  0  0  0  0  0  0
   35.3453  -14.2308   36.6602 C   0  0  0  0  0  0  0  0  0  0  0  0
   36.5934  -14.6920   37.0673 C   0  0  0  0  0  0  0  0  0  0  0  0
   37.7019  -13.5053   37.7073 Cl  0  0  0  0  0  0  0  0  0  0  0  0
   36.9070  -16.0273   36.9563 C   0  0  0  0  0  0  0  0  0  0  0  0
   35.0039  -12.8360   36.7707 C   0  0  0  0  0  0  0  0  0  0  0  0
   34.7475  -11.7034   36.8573 N   0  0  0  0  0  0  0  0  0  0  0  0
   41.6968  -20.1650   41.3656 O   0  0  0  0  0  0  0  0  0  0  0  0
   42.2858  -19.0379   40.8704 C   0  0  0  0  0  0  0  0  0  0  0  0
   43.6889  -19.2767   40.3902 C   0  0  0  0  0  0  0  0  0  0  0  0
   43.8904  -18.7670   39.0479 N   0  0  0  0  0  0  0  0  0  0  0  0
   43.6587  -19.4761   37.8545 C   0  0  0  0  0  0  0  0  0  0  0  0
   43.2365  -20.6533   37.9032 O   0  0  0  0  0  0  0  0  0  0  0  0
   44.2460  -17.7666   38.9609 H   0  0  0  0  0  0  0  0  0  0  0  0
   43.9043  -18.8580   36.5342 C   0  0  0  0  0  0  0  0  0  0  0  0
   42.7349  -18.0261   36.0684 C   0  0  0  0  0  0  0  0  0  0  0  0
   41.4324  -18.4879   36.6330 C   0  0  0  0  0  0  0  0  0  0  0  0
   42.6579  -18.0734   34.5591 C   0  0  0  0  0  0  0  0  0  0  0  0
   43.0272  -16.5799   36.4570 C   0  0  0  0  0  0  0  0  0  0  0  0
 10 11  1  0  0  0
 11  1  1  0  0  0
  1  2  2  0  0  0
  2  3  1  0  0  0
  3 12  1  0  0  0
 12 13  1  0  0  0
 13 14  1  0  0  0
 14 15  1  0  0  0
 15 16  1  0  0  0
 16 17  1  0  0  0
 17 18  1  0  0  0
 18 19  2  0  0  0
 17 20  1  0  0  0
 20 21  2  0  0  0
 21 22  1  0  0  0
 22 23  2  0  0  0
 23 27  1  0  0  0
 27 28  3  0  0  0
 23 24  1  0  0  0
 24 25  1  0  0  0
 24 26  2  0  0  0
  3  4  1  0  0  0
  4  5  2  0  0  0
  5  6  1  0  0  0
  6 29  1  0  0  0
 29 30  1  0  0  0
 30 31  1  0  0  0
 31 32  1  0  0  0
 32 33  1  0  0  0
 33 34  2  0  0  0
 33 36  1  0  0  0
 36 37  1  0  0  0
 37 38  1  0  0  0
 37 39  1  0  0  0
 37 40  1  0  0  0
  6  7  2  0  0  0
  7  8  1  0  0  0
  8  9  2  0  0  0
  9  1  1  0  0  0
 18 14  1  0  0  0
 26 20  1  0  0  0
  9  4  1  0  0  0
 32 35  1  0  0  0
M  END
> <minimizedAffinity>
-6.32277

> <CNNscore>
0.3880020082

> <CNNaffinity>
6.3549156189

> <CNN_VS>
2.4657199383

> <CNNaffinity_variance>
0.4389930665

$$$$
