[H]OC([H])([H])[C@@]1(O[H])C([H])([H])[C@@]2([H])O[C@]1(C([H])([H])[H])n1c3c([H])c([H])c([H])c([H])c3c3c4c(c5c6c([H])c([H])c([H])c([H])c6n2c5c31)C(=O)N([H])C4([H])[H]


 36 43  0  0  0  0  0  0  0  0999 V2000
   40.9077  -20.5785   34.2737 C   0  0  0  0  0  0  0  0  0  0  0  0
   40.2038  -20.5813   35.5874 C   0  0  0  0  0  0  0  0  0  0  0  0
   38.9550  -21.1446   35.2051 O   0  0  0  0  0  0  0  0  0  0  0  0
   37.9733  -20.6693   36.0053 C   0  0  0  0  0  0  0  0  0  0  0  0
   38.3335  -19.2951   36.3785 C   0  0  0  0  0  0  0  0  0  0  0  0
   39.8144  -19.2189   36.0800 C   0  0  0  0  0  0  0  0  0  0  0  0
   40.4411  -18.8690   37.2667 O   0  0  0  0  0  0  0  0  0  0  0  0
   37.7518  -21.5687   37.1452 N   0  0  0  0  0  0  0  0  0  0  0  0
   36.6171  -21.9167   37.7273 C   0  0  0  0  0  0  0  0  0  0  0  0
   35.3412  -21.5223   37.4182 C   0  0  0  0  0  0  0  0  0  0  0  0
   34.2927  -22.0255   38.1785 C   0  0  0  0  0  0  0  0  0  0  0  0
   34.5296  -22.8950   39.2121 C   0  0  0  0  0  0  0  0  0  0  0  0
   35.8317  -23.2996   39.5301 C   0  0  0  0  0  0  0  0  0  0  0  0
   36.8538  -22.7993   38.7769 C   0  0  0  0  0  0  0  0  0  0  0  0
   38.2181  -22.9781   38.8104 C   0  0  0  0  0  0  0  0  0  0  0  0
   39.0674  -23.7130   39.6175 C   0  0  0  0  0  0  0  0  0  0  0  0
   38.8847  -24.6110   40.7436 C   0  0  0  0  0  0  0  0  0  0  0  0
   37.8605  -24.9804   41.3203 O   0  0  0  0  0  0  0  0  0  0  0  0
   40.1815  -25.0637   41.1451 N   0  0  0  0  0  0  0  0  0  0  0  0
   41.2053  -24.4776   40.3145 C   0  0  0  0  0  0  0  0  0  0  0  0
   40.4255  -23.6425   39.3686 C   0  0  0  0  0  0  0  0  0  0  0  0
   40.9523  -22.8647   38.3433 C   0  0  0  0  0  0  0  0  0  0  0  0
   42.2029  -22.5913   37.8862 C   0  0  0  0  0  0  0  0  0  0  0  0
   43.4277  -23.0355   38.3282 C   0  0  0  0  0  0  0  0  0  0  0  0
   44.5850  -22.5818   37.6883 C   0  0  0  0  0  0  0  0  0  0  0  0
   44.4565  -21.6994   36.6307 C   0  0  0  0  0  0  0  0  0  0  0  0
   43.2126  -21.2671   36.2048 C   0  0  0  0  0  0  0  0  0  0  0  0
   42.0622  -21.7012   36.8183 C   0  0  0  0  0  0  0  0  0  0  0  0
   40.7462  -21.4281   36.6111 N   0  0  0  0  0  0  0  0  0  0  0  0
   40.0895  -22.1604   37.5729 C   0  0  0  0  0  0  0  0  0  0  0  0
   38.7300  -22.2045   37.7911 C   0  0  0  0  0  0  0  0  0  0  0  0
   40.4939  -17.8839   37.3089 H   0  0  0  0  0  0  0  0  0  0  0  0
   40.4023  -25.7317   41.9324 H   0  0  0  0  0  0  0  0  0  0  0  0
   40.0338  -18.1296   35.0856 C   0  0  0  0  0  0  0  0  0  0  0  0
   41.4068  -17.9961   34.8763 O   0  0  0  0  0  0  0  0  0  0  0  0
   41.7712  -17.1571   35.2573 H   0  0  0  0  0  0  0  0  0  0  0  0
  2  1  1  0  0  0
  2  3  1  0  0  0
  3  4  1  0  0  0
  4  5  1  0  0  0
  5  6  1  0  0  0
  6  7  1  0  0  0
  6 34  1  0  0  0
 34 35  1  0  0  0
  4  8  1  0  0  0
  8  9  1  0  0  0
  9 10  2  0  0  0
 10 11  1  0  0  0
 11 12  2  0  0  0
 12 13  1  0  0  0
 13 14  2  0  0  0
 14 15  1  0  0  0
 15 16  2  0  0  0
 16 17  1  0  0  0
 17 18  2  0  0  0
 17 19  1  0  0  0
 19 20  1  0  0  0
 20 21  1  0  0  0
 21 22  2  0  0  0
 22 23  1  0  0  0
 23 24  2  0  0  0
 24 25  1  0  0  0
 25 26  2  0  0  0
 26 27  1  0  0  0
 27 28  2  0  0  0
 28 29  1  0  0  0
 29 30  1  0  0  0
 30 31  2  0  0  0
  6  2  1  0  0  0
 31  8  1  0  0  0
 29  2  1  0  0  0
 14  9  1  0  0  0
 31 15  1  0  0  0
 21 16  1  0  0  0
 30 22  1  0  0  0
 28 23  1  0  0  0
  7 32  1  0  0  0
 35 36  1  0  0  0
 19 33  1  0  0  0
M  END
> <minimizedAffinity>
-2.50162

> <CNNscore>
0.5190642476

> <CNNaffinity>
5.1964340210

> <CNN_VS>
2.6972830296

> <CNNaffinity_variance>
0.4939349294

$$$$
[H]OC([H])([H])[C@@]1(O[H])C([H])([H])[C@@]2([H])O[C@]1(C([H])([H])[H])n1c3c([H])c([H])c([H])c([H])c3c3c4c(c5c6c([H])c([H])c([H])c([H])c6n2c5c31)C(=O)N([H])C4([H])[H]


 36 43  0  0  0  0  0  0  0  0999 V2000
   38.6043  -20.6176   33.4727 C   0  0  0  0  0  0  0  0  0  0  0  0
   38.7738  -20.4526   34.9442 C   0  0  0  0  0  0  0  0  0  0  0  0
   37.4662  -20.7911   35.3900 O   0  0  0  0  0  0  0  0  0  0  0  0
   37.1829  -20.1213   36.5307 C   0  0  0  0  0  0  0  0  0  0  0  0
   37.8697  -18.8246   36.4643 C   0  0  0  0  0  0  0  0  0  0  0  0
   38.9164  -19.0277   35.3914 C   0  0  0  0  0  0  0  0  0  0  0  0
   40.1441  -18.7615   35.9791 O   0  0  0  0  0  0  0  0  0  0  0  0
   37.5277  -20.9304   37.7070 N   0  0  0  0  0  0  0  0  0  0  0  0
   36.8870  -21.0487   38.8572 C   0  0  0  0  0  0  0  0  0  0  0  0
   35.7261  -20.4387   39.2562 C   0  0  0  0  0  0  0  0  0  0  0  0
   35.2357  -20.7198   40.5255 C   0  0  0  0  0  0  0  0  0  0  0  0
   35.8975  -21.5860   41.3576 C   0  0  0  0  0  0  0  0  0  0  0  0
   37.0835  -22.2104   40.9527 C   0  0  0  0  0  0  0  0  0  0  0  0
   37.5560  -21.9272   39.7042 C   0  0  0  0  0  0  0  0  0  0  0  0
   38.6617  -22.3497   39.0018 C   0  0  0  0  0  0  0  0  0  0  0  0
   39.7118  -23.2017   39.2920 C   0  0  0  0  0  0  0  0  0  0  0  0
   40.0805  -24.0169   40.4354 C   0  0  0  0  0  0  0  0  0  0  0  0
   39.5238  -24.1764   41.5229 O   0  0  0  0  0  0  0  0  0  0  0  0
   41.3030  -24.6851   40.1084 N   0  0  0  0  0  0  0  0  0  0  0  0
   41.7445  -24.3202   38.7842 C   0  0  0  0  0  0  0  0  0  0  0  0
   40.6858  -23.3865   38.3285 C   0  0  0  0  0  0  0  0  0  0  0  0
   40.6382  -22.7489   37.0936 C   0  0  0  0  0  0  0  0  0  0  0  0
   41.4339  -22.7212   35.9919 C   0  0  0  0  0  0  0  0  0  0  0  0
   42.6218  -23.3668   35.7370 C   0  0  0  0  0  0  0  0  0  0  0  0
   43.2622  -23.1504   34.5133 C   0  0  0  0  0  0  0  0  0  0  0  0
   42.6769  -22.2920   33.6000 C   0  0  0  0  0  0  0  0  0  0  0  0
   41.4809  -21.6542   33.8803 C   0  0  0  0  0  0  0  0  0  0  0  0
   40.8338  -21.8533   35.0760 C   0  0  0  0  0  0  0  0  0  0  0  0
   39.6817  -21.3522   35.5966 N   0  0  0  0  0  0  0  0  0  0  0  0
   39.5938  -21.9235   36.8450 C   0  0  0  0  0  0  0  0  0  0  0  0
   38.6047  -21.7133   37.7806 C   0  0  0  0  0  0  0  0  0  0  0  0
   40.3419  -17.8015   35.8591 H   0  0  0  0  0  0  0  0  0  0  0  0
   41.8392  -25.3578   40.7206 H   0  0  0  0  0  0  0  0  0  0  0  0
   38.6774  -18.0271   34.3120 C   0  0  0  0  0  0  0  0  0  0  0  0
   37.4101  -17.4740   34.4987 O   0  0  0  0  0  0  0  0  0  0  0  0
   36.7624  -17.7614   33.8060 H   0  0  0  0  0  0  0  0  0  0  0  0
  2  1  1  0  0  0
  2  3  1  0  0  0
  3  4  1  0  0  0
  4  5  1  0  0  0
  5  6  1  0  0  0
  6  7  1  0  0  0
  6 34  1  0  0  0
 34 35  1  0  0  0
  4  8  1  0  0  0
  8  9  1  0  0  0
  9 10  2  0  0  0
 10 11  1  0  0  0
 11 12  2  0  0  0
 12 13  1  0  0  0
 13 14  2  0  0  0
 14 15  1  0  0  0
 15 16  2  0  0  0
 16 17  1  0  0  0
 17 18  2  0  0  0
 17 19  1  0  0  0
 19 20  1  0  0  0
 20 21  1  0  0  0
 21 22  2  0  0  0
 22 23  1  0  0  0
 23 24  2  0  0  0
 24 25  1  0  0  0
 25 26  2  0  0  0
 26 27  1  0  0  0
 27 28  2  0  0  0
 28 29  1  0  0  0
 29 30  1  0  0  0
 30 31  2  0  0  0
  6  2  1  0  0  0
 31  8  1  0  0  0
 29  2  1  0  0  0
 14  9  1  0  0  0
 31 15  1  0  0  0
 21 16  1  0  0  0
 30 22  1  0  0  0
 28 23  1  0  0  0
  7 32  1  0  0  0
 35 36  1  0  0  0
 19 33  1  0  0  0
M  END
> <minimizedAffinity>
-3.46072

> <CNNscore>
0.4768095613

> <CNNaffinity>
5.0164899826

> <CNN_VS>
2.3919103146

> <CNNaffinity_variance>
0.1995955408

$$$$
[H]OC([H])([H])[C@@]1(O[H])C([H])([H])[C@@]2([H])O[C@]1(C([H])([H])[H])n1c3c([H])c([H])c([H])c([H])c3c3c4c(c5c6c([H])c([H])c([H])c([H])c6n2c5c31)C(=O)N([H])C4([H])[H]


 36 43  0  0  0  0  0  0  0  0999 V2000
   37.2010  -21.3350   36.9298 C   0  0  0  0  0  0  0  0  0  0  0  0
   35.8250  -21.0457   37.4239 C   0  0  0  0  0  0  0  0  0  0  0  0
   35.0856  -21.1952   36.2181 O   0  0  0  0  0  0  0  0  0  0  0  0
   33.9988  -20.3900   36.2436 C   0  0  0  0  0  0  0  0  0  0  0  0
   34.3570  -19.1881   37.0083 C   0  0  0  0  0  0  0  0  0  0  0  0
   35.5885  -19.6077   37.7798 C   0  0  0  0  0  0  0  0  0  0  0  0
   35.2987  -19.4195   39.1229 O   0  0  0  0  0  0  0  0  0  0  0  0
   32.8297  -21.1123   36.7620 N   0  0  0  0  0  0  0  0  0  0  0  0
   31.5675  -21.0471   36.3748 C   0  0  0  0  0  0  0  0  0  0  0  0
   31.0160  -20.2789   35.3825 C   0  0  0  0  0  0  0  0  0  0  0  0
   29.6492  -20.3792   35.1532 C   0  0  0  0  0  0  0  0  0  0  0  0
   28.8724  -21.2261   35.9015 C   0  0  0  0  0  0  0  0  0  0  0  0
   29.4330  -22.0120   36.9156 C   0  0  0  0  0  0  0  0  0  0  0  0
   30.7762  -21.9055   37.1322 C   0  0  0  0  0  0  0  0  0  0  0  0
   31.6337  -22.5121   38.0218 C   0  0  0  0  0  0  0  0  0  0  0  0
   31.4641  -23.4401   39.0331 C   0  0  0  0  0  0  0  0  0  0  0  0
   30.3311  -24.1742   39.5673 C   0  0  0  0  0  0  0  0  0  0  0  0
   29.1421  -24.1651   39.2448 O   0  0  0  0  0  0  0  0  0  0  0  0
   30.8184  -24.9997   40.6299 N   0  0  0  0  0  0  0  0  0  0  0  0
   32.2384  -24.8165   40.8071 C   0  0  0  0  0  0  0  0  0  0  0  0
   32.5768  -23.8230   39.7588 C   0  0  0  0  0  0  0  0  0  0  0  0
   33.8428  -23.3082   39.5025 C   0  0  0  0  0  0  0  0  0  0  0  0
   35.0787  -23.4751   40.0433 C   0  0  0  0  0  0  0  0  0  0  0  0
   35.4915  -24.2673   41.0896 C   0  0  0  0  0  0  0  0  0  0  0  0
   36.8368  -24.2427   41.4692 C   0  0  0  0  0  0  0  0  0  0  0  0
   37.7072  -23.4197   40.7773 C   0  0  0  0  0  0  0  0  0  0  0  0
   37.2672  -22.6318   39.7279 C   0  0  0  0  0  0  0  0  0  0  0  0
   35.9498  -22.6414   39.3372 C   0  0  0  0  0  0  0  0  0  0  0  0
   35.2689  -21.9699   38.3703 N   0  0  0  0  0  0  0  0  0  0  0  0
   33.9700  -22.4030   38.5033 C   0  0  0  0  0  0  0  0  0  0  0  0
   32.8844  -21.9961   37.7591 C   0  0  0  0  0  0  0  0  0  0  0  0
   35.5695  -18.5030   39.3716 H   0  0  0  0  0  0  0  0  0  0  0  0
   30.2526  -25.6631   41.2253 H   0  0  0  0  0  0  0  0  0  0  0  0
   36.7077  -18.6979   37.4014 C   0  0  0  0  0  0  0  0  0  0  0  0
   36.2227  -17.3897   37.3817 O   0  0  0  0  0  0  0  0  0  0  0  0
   36.1611  -17.0193   36.4648 H   0  0  0  0  0  0  0  0  0  0  0  0
  2  1  1  0  0  0
  2  3  1  0  0  0
  3  4  1  0  0  0
  4  5  1  0  0  0
  5  6  1  0  0  0
  6  7  1  0  0  0
  6 34  1  0  0  0
 34 35  1  0  0  0
  4  8  1  0  0  0
  8  9  1  0  0  0
  9 10  2  0  0  0
 10 11  1  0  0  0
 11 12  2  0  0  0
 12 13  1  0  0  0
 13 14  2  0  0  0
 14 15  1  0  0  0
 15 16  2  0  0  0
 16 17  1  0  0  0
 17 18  2  0  0  0
 17 19  1  0  0  0
 19 20  1  0  0  0
 20 21  1  0  0  0
 21 22  2  0  0  0
 22 23  1  0  0  0
 23 24  2  0  0  0
 24 25  1  0  0  0
 25 26  2  0  0  0
 26 27  1  0  0  0
 27 28  2  0  0  0
 28 29  1  0  0  0
 29 30  1  0  0  0
 30 31  2  0  0  0
  6  2  1  0  0  0
 31  8  1  0  0  0
 29  2  1  0  0  0
 14  9  1  0  0  0
 31 15  1  0  0  0
 21 16  1  0  0  0
 30 22  1  0  0  0
 28 23  1  0  0  0
  7 32  1  0  0  0
 35 36  1  0  0  0
 19 33  1  0  0  0
M  END
> <minimizedAffinity>
-4.41859

> <CNNscore>
0.4702917635

> <CNNaffinity>
4.6526031494

> <CNN_VS>
2.1880810261

> <CNNaffinity_variance>
0.1913258135

$$$$
[H]OC([H])([H])[C@@]1(O[H])C([H])([H])[C@@]2([H])O[C@]1(C([H])([H])[H])n1c3c([H])c([H])c([H])c([H])c3c3c4c(c5c6c([H])c([H])c([H])c([H])c6n2c5c31)C(=O)N([H])C4([H])[H]


 36 43  0  0  0  0  0  0  0  0999 V2000
   36.9920  -20.2377   34.4550 C   0  0  0  0  0  0  0  0  0  0  0  0
   36.6617  -19.1976   35.4701 C   0  0  0  0  0  0  0  0  0  0  0  0
   37.7430  -18.2954   35.2702 O   0  0  0  0  0  0  0  0  0  0  0  0
   38.0318  -17.6616   36.4300 C   0  0  0  0  0  0  0  0  0  0  0  0
   37.7514  -18.5974   37.5269 C   0  0  0  0  0  0  0  0  0  0  0  0
   36.8584  -19.6391   36.8902 C   0  0  0  0  0  0  0  0  0  0  0  0
   35.6815  -19.6549   37.6237 O   0  0  0  0  0  0  0  0  0  0  0  0
   37.3066  -16.3876   36.5198 N   0  0  0  0  0  0  0  0  0  0  0  0
   37.7132  -15.2265   37.0036 C   0  0  0  0  0  0  0  0  0  0  0  0
   38.9268  -14.9078   37.5556 C   0  0  0  0  0  0  0  0  0  0  0  0
   39.1279  -13.6070   38.0006 C   0  0  0  0  0  0  0  0  0  0  0  0
   38.1363  -12.6662   37.8898 C   0  0  0  0  0  0  0  0  0  0  0  0
   36.8958  -12.9888   37.3265 C   0  0  0  0  0  0  0  0  0  0  0  0
   36.7092  -14.2692   36.8927 C   0  0  0  0  0  0  0  0  0  0  0  0
   35.6447  -14.9147   36.3054 C   0  0  0  0  0  0  0  0  0  0  0  0
   34.3680  -14.5229   35.9461 C   0  0  0  0  0  0  0  0  0  0  0  0
   33.6231  -13.2786   36.0153 C   0  0  0  0  0  0  0  0  0  0  0  0
   33.9478  -12.1692   36.4417 O   0  0  0  0  0  0  0  0  0  0  0  0
   32.3244  -13.5259   35.4677 N   0  0  0  0  0  0  0  0  0  0  0  0
   32.2010  -14.9015   35.0505 C   0  0  0  0  0  0  0  0  0  0  0  0
   33.5331  -15.4666   35.3773 C   0  0  0  0  0  0  0  0  0  0  0  0
   33.9370  -16.7793   35.1594 C   0  0  0  0  0  0  0  0  0  0  0  0
   33.3508  -17.8967   34.6540 C   0  0  0  0  0  0  0  0  0  0  0  0
   32.0806  -18.0889   34.1615 C   0  0  0  0  0  0  0  0  0  0  0  0
   31.7123  -19.3608   33.7131 C   0  0  0  0  0  0  0  0  0  0  0  0
   32.6411  -20.3838   33.7814 C   0  0  0  0  0  0  0  0  0  0  0  0
   33.9130  -20.1650   34.2813 C   0  0  0  0  0  0  0  0  0  0  0  0
   34.2965  -18.9227   34.7261 C   0  0  0  0  0  0  0  0  0  0  0  0
   35.4536  -18.4514   35.2634 N   0  0  0  0  0  0  0  0  0  0  0  0
   35.1948  -17.1253   35.5226 C   0  0  0  0  0  0  0  0  0  0  0  0
   36.0552  -16.2131   36.0932 C   0  0  0  0  0  0  0  0  0  0  0  0
   35.7791  -20.3173   38.3495 H   0  0  0  0  0  0  0  0  0  0  0  0
   31.5382  -12.8286   35.3650 H   0  0  0  0  0  0  0  0  0  0  0  0
   37.5224  -20.9674   37.0253 C   0  0  0  0  0  0  0  0  0  0  0  0
   38.5632  -20.8463   37.9467 O   0  0  0  0  0  0  0  0  0  0  0  0
   39.4570  -20.9056   37.5229 H   0  0  0  0  0  0  0  0  0  0  0  0
  2  1  1  0  0  0
  2  3  1  0  0  0
  3  4  1  0  0  0
  4  5  1  0  0  0
  5  6  1  0  0  0
  6  7  1  0  0  0
  6 34  1  0  0  0
 34 35  1  0  0  0
  4  8  1  0  0  0
  8  9  1  0  0  0
  9 10  2  0  0  0
 10 11  1  0  0  0
 11 12  2  0  0  0
 12 13  1  0  0  0
 13 14  2  0  0  0
 14 15  1  0  0  0
 15 16  2  0  0  0
 16 17  1  0  0  0
 17 18  2  0  0  0
 17 19  1  0  0  0
 19 20  1  0  0  0
 20 21  1  0  0  0
 21 22  2  0  0  0
 22 23  1  0  0  0
 23 24  2  0  0  0
 24 25  1  0  0  0
 25 26  2  0  0  0
 26 27  1  0  0  0
 27 28  2  0  0  0
 28 29  1  0  0  0
 29 30  1  0  0  0
 30 31  2  0  0  0
  6  2  1  0  0  0
 31  8  1  0  0  0
 29  2  1  0  0  0
 14  9  1  0  0  0
 31 15  1  0  0  0
 21 16  1  0  0  0
 30 22  1  0  0  0
 28 23  1  0  0  0
  7 32  1  0  0  0
 35 36  1  0  0  0
 19 33  1  0  0  0
M  END
> <minimizedAffinity>
2.43783

> <CNNscore>
0.4258829355

> <CNNaffinity>
5.2684025764

> <CNN_VS>
2.2437226772

> <CNNaffinity_variance>
0.3669317663

$$$$
[H]OC([H])([H])[C@@]1(O[H])C([H])([H])[C@@]2([H])O[C@]1(C([H])([H])[H])n1c3c([H])c([H])c([H])c([H])c3c3c4c(c5c6c([H])c([H])c([H])c([H])c6n2c5c31)C(=O)N([H])C4([H])[H]


 36 43  0  0  0  0  0  0  0  0999 V2000
   34.8870  -12.2894   35.5755 C   0  0  0  0  0  0  0  0  0  0  0  0
   34.5958  -13.6246   36.1702 C   0  0  0  0  0  0  0  0  0  0  0  0
   33.9505  -14.2566   35.0714 O   0  0  0  0  0  0  0  0  0  0  0  0
   33.0546  -15.1630   35.5252 C   0  0  0  0  0  0  0  0  0  0  0  0
   32.5152  -14.6549   36.7934 C   0  0  0  0  0  0  0  0  0  0  0  0
   33.5234  -13.6107   37.2191 C   0  0  0  0  0  0  0  0  0  0  0  0
   33.9819  -13.9891   38.4720 O   0  0  0  0  0  0  0  0  0  0  0  0
   33.6654  -16.4956   35.6168 N   0  0  0  0  0  0  0  0  0  0  0  0
   33.1407  -17.6766   35.3387 C   0  0  0  0  0  0  0  0  0  0  0  0
   31.8778  -17.9676   34.8922 C   0  0  0  0  0  0  0  0  0  0  0  0
   31.5483  -19.2984   34.6660 C   0  0  0  0  0  0  0  0  0  0  0  0
   32.4647  -20.2950   34.8842 C   0  0  0  0  0  0  0  0  0  0  0  0
   33.7554  -20.0007   35.3401 C   0  0  0  0  0  0  0  0  0  0  0  0
   34.0681  -18.6905   35.5590 C   0  0  0  0  0  0  0  0  0  0  0  0
   35.2107  -18.0594   35.9957 C   0  0  0  0  0  0  0  0  0  0  0  0
   36.4598  -18.5051   36.3878 C   0  0  0  0  0  0  0  0  0  0  0  0
   37.0963  -19.8062   36.4862 C   0  0  0  0  0  0  0  0  0  0  0  0
   36.6670  -20.9331   36.2337 O   0  0  0  0  0  0  0  0  0  0  0  0
   38.4286  -19.5961   36.9646 N   0  0  0  0  0  0  0  0  0  0  0  0
   38.6741  -18.1920   37.1879 C   0  0  0  0  0  0  0  0  0  0  0  0
   37.3883  -17.5652   36.7951 C   0  0  0  0  0  0  0  0  0  0  0  0
   37.1043  -16.2042   36.8198 C   0  0  0  0  0  0  0  0  0  0  0  0
   37.7858  -15.0838   37.1776 C   0  0  0  0  0  0  0  0  0  0  0  0
   39.0659  -14.9382   37.6603 C   0  0  0  0  0  0  0  0  0  0  0  0
   39.5298  -13.6579   37.9767 C   0  0  0  0  0  0  0  0  0  0  0  0
   38.6823  -12.5802   37.7930 C   0  0  0  0  0  0  0  0  0  0  0  0
   37.3983  -12.7528   37.3059 C   0  0  0  0  0  0  0  0  0  0  0  0
   36.9223  -14.0019   36.9873 C   0  0  0  0  0  0  0  0  0  0  0  0
   35.7248  -14.4404   36.5149 N   0  0  0  0  0  0  0  0  0  0  0  0
   35.8712  -15.8055   36.4270 C   0  0  0  0  0  0  0  0  0  0  0  0
   34.9192  -16.7125   36.0158 C   0  0  0  0  0  0  0  0  0  0  0  0
   33.4012  -13.5710   39.1524 H   0  0  0  0  0  0  0  0  0  0  0  0
   39.1604  -20.3360   37.1428 H   0  0  0  0  0  0  0  0  0  0  0  0
   32.8159  -12.3041   37.3449 C   0  0  0  0  0  0  0  0  0  0  0  0
   31.6942  -12.3305   36.5155 O   0  0  0  0  0  0  0  0  0  0  0  0
   31.7865  -11.7342   35.7295 H   0  0  0  0  0  0  0  0  0  0  0  0
  2  1  1  0  0  0
  2  3  1  0  0  0
  3  4  1  0  0  0
  4  5  1  0  0  0
  5  6  1  0  0  0
  6  7  1  0  0  0
  6 34  1  0  0  0
 34 35  1  0  0  0
  4  8  1  0  0  0
  8  9  1  0  0  0
  9 10  2  0  0  0
 10 11  1  0  0  0
 11 12  2  0  0  0
 12 13  1  0  0  0
 13 14  2  0  0  0
 14 15  1  0  0  0
 15 16  2  0  0  0
 16 17  1  0  0  0
 17 18  2  0  0  0
 17 19  1  0  0  0
 19 20  1  0  0  0
 20 21  1  0  0  0
 21 22  2  0  0  0
 22 23  1  0  0  0
 23 24  2  0  0  0
 24 25  1  0  0  0
 25 26  2  0  0  0
 26 27  1  0  0  0
 27 28  2  0  0  0
 28 29  1  0  0  0
 29 30  1  0  0  0
 30 31  2  0  0  0
  6  2  1  0  0  0
 31  8  1  0  0  0
 29  2  1  0  0  0
 14  9  1  0  0  0
 31 15  1  0  0  0
 21 16  1  0  0  0
 30 22  1  0  0  0
 28 23  1  0  0  0
  7 32  1  0  0  0
 35 36  1  0  0  0
 19 33  1  0  0  0
M  END
> <minimizedAffinity>
4.11246

> <CNNscore>
0.4218677878

> <CNNaffinity>
5.5063371658

> <CNN_VS>
2.3229463100

> <CNNaffinity_variance>
0.1401888728

$$$$
[H]OC([H])([H])[C@@]1(O[H])C([H])([H])[C@@]2([H])O[C@]1(C([H])([H])[H])n1c3c([H])c([H])c([H])c([H])c3c3c4c(c5c6c([H])c([H])c([H])c([H])c6n2c5c31)C(=O)N([H])C4([H])[H]


 36 43  0  0  0  0  0  0  0  0999 V2000
   30.5730  -19.3064   35.5455 C   0  0  0  0  0  0  0  0  0  0  0  0
   31.7001  -20.2619   35.7400 C   0  0  0  0  0  0  0  0  0  0  0  0
   32.5225  -19.5083   36.6224 O   0  0  0  0  0  0  0  0  0  0  0  0
   33.8209  -19.8374   36.4327 C   0  0  0  0  0  0  0  0  0  0  0  0
   33.9893  -20.1714   35.0122 C   0  0  0  0  0  0  0  0  0  0  0  0
   32.5777  -20.4320   34.5353 C   0  0  0  0  0  0  0  0  0  0  0  0
   32.5621  -21.7225   34.0276 O   0  0  0  0  0  0  0  0  0  0  0  0
   34.2268  -20.9032   37.3582 N   0  0  0  0  0  0  0  0  0  0  0  0
   35.3704  -21.0603   38.0023 C   0  0  0  0  0  0  0  0  0  0  0  0
   36.4861  -20.2645   37.9707 C   0  0  0  0  0  0  0  0  0  0  0  0
   37.5821  -20.6342   38.7406 C   0  0  0  0  0  0  0  0  0  0  0  0
   37.5474  -21.7672   39.5125 C   0  0  0  0  0  0  0  0  0  0  0  0
   36.4093  -22.5818   39.5467 C   0  0  0  0  0  0  0  0  0  0  0  0
   35.3387  -22.2093   38.7868 C   0  0  0  0  0  0  0  0  0  0  0  0
   34.0933  -22.7605   38.5870 C   0  0  0  0  0  0  0  0  0  0  0  0
   33.4615  -23.8951   39.0624 C   0  0  0  0  0  0  0  0  0  0  0  0
   33.8280  -24.9622   39.9760 C   0  0  0  0  0  0  0  0  0  0  0  0
   34.8660  -25.1571   40.6106 O   0  0  0  0  0  0  0  0  0  0  0  0
   32.7143  -25.8571   40.0580 N   0  0  0  0  0  0  0  0  0  0  0  0
   31.6343  -25.4048   39.2151 C   0  0  0  0  0  0  0  0  0  0  0  0
   32.1766  -24.1568   38.6243 C   0  0  0  0  0  0  0  0  0  0  0  0
   31.5124  -23.3219   37.7325 C   0  0  0  0  0  0  0  0  0  0  0  0
   30.2946  -23.3307   37.1286 C   0  0  0  0  0  0  0  0  0  0  0  0
   29.2626  -24.2357   37.2220 C   0  0  0  0  0  0  0  0  0  0  0  0
   28.1035  -24.0224   36.4700 C   0  0  0  0  0  0  0  0  0  0  0  0
   28.0358  -22.9059   35.6562 C   0  0  0  0  0  0  0  0  0  0  0  0
   29.0880  -22.0100   35.5794 C   0  0  0  0  0  0  0  0  0  0  0  0
   30.2359  -22.1994   36.3107 C   0  0  0  0  0  0  0  0  0  0  0  0
   31.3957  -21.4956   36.4067 N   0  0  0  0  0  0  0  0  0  0  0  0
   32.1626  -22.2194   37.2902 C   0  0  0  0  0  0  0  0  0  0  0  0
   33.4437  -21.9259   37.7032 C   0  0  0  0  0  0  0  0  0  0  0  0
   32.7793  -21.6782   33.0654 H   0  0  0  0  0  0  0  0  0  0  0  0
   32.6506  -26.7355   40.6404 H   0  0  0  0  0  0  0  0  0  0  0  0
   32.2771  -19.4801   33.4275 C   0  0  0  0  0  0  0  0  0  0  0  0
   32.9964  -18.3055   33.6506 O   0  0  0  0  0  0  0  0  0  0  0  0
   32.4152  -17.5449   33.9067 H   0  0  0  0  0  0  0  0  0  0  0  0
  2  1  1  0  0  0
  2  3  1  0  0  0
  3  4  1  0  0  0
  4  5  1  0  0  0
  5  6  1  0  0  0
  6  7  1  0  0  0
  6 34  1  0  0  0
 34 35  1  0  0  0
  4  8  1  0  0  0
  8  9  1  0  0  0
  9 10  2  0  0  0
 10 11  1  0  0  0
 11 12  2  0  0  0
 12 13  1  0  0  0
 13 14  2  0  0  0
 14 15  1  0  0  0
 15 16  2  0  0  0
 16 17  1  0  0  0
 17 18  2  0  0  0
 17 19  1  0  0  0
 19 20  1  0  0  0
 20 21  1  0  0  0
 21 22  2  0  0  0
 22 23  1  0  0  0
 23 24  2  0  0  0
 24 25  1  0  0  0
 25 26  2  0  0  0
 26 27  1  0  0  0
 27 28  2  0  0  0
 28 29  1  0  0  0
 29 30  1  0  0  0
 30 31  2  0  0  0
  6  2  1  0  0  0
 31  8  1  0  0  0
 29  2  1  0  0  0
 14  9  1  0  0  0
 31 15  1  0  0  0
 21 16  1  0  0  0
 30 22  1  0  0  0
 28 23  1  0  0  0
  7 32  1  0  0  0
 35 36  1  0  0  0
 19 33  1  0  0  0
M  END
> <minimizedAffinity>
-5.45711

> <CNNscore>
0.4024246335

> <CNNaffinity>
4.6571936607

> <CNN_VS>
1.8741694689

> <CNNaffinity_variance>
0.5176367760

$$$$
[H]OC([H])([H])[C@@]1(O[H])C([H])([H])[C@@]2([H])O[C@]1(C([H])([H])[H])n1c3c([H])c([H])c([H])c([H])c3c3c4c(c5c6c([H])c([H])c([H])c([H])c6n2c5c31)C(=O)N([H])C4([H])[H]


 36 43  0  0  0  0  0  0  0  0999 V2000
   41.4564  -21.2852   33.6044 C   0  0  0  0  0  0  0  0  0  0  0  0
   40.6818  -20.6048   34.6807 C   0  0  0  0  0  0  0  0  0  0  0  0
   39.3717  -21.0735   34.3856 O   0  0  0  0  0  0  0  0  0  0  0  0
   38.4584  -20.1490   34.7615 C   0  0  0  0  0  0  0  0  0  0  0  0
   39.0689  -18.8253   34.5803 C   0  0  0  0  0  0  0  0  0  0  0  0
   40.5500  -19.1214   34.5004 C   0  0  0  0  0  0  0  0  0  0  0  0
   41.1556  -18.3936   35.5138 O   0  0  0  0  0  0  0  0  0  0  0  0
   37.9814  -20.4150   36.1249 N   0  0  0  0  0  0  0  0  0  0  0  0
   36.7634  -20.2911   36.6235 C   0  0  0  0  0  0  0  0  0  0  0  0
   35.6196  -19.8747   35.9932 C   0  0  0  0  0  0  0  0  0  0  0  0
   34.4419  -19.8243   36.7289 C   0  0  0  0  0  0  0  0  0  0  0  0
   34.4256  -20.1825   38.0526 C   0  0  0  0  0  0  0  0  0  0  0  0
   35.5923  -20.6081   38.6989 C   0  0  0  0  0  0  0  0  0  0  0  0
   36.7431  -20.6538   37.9669 C   0  0  0  0  0  0  0  0  0  0  0  0
   38.0360  -21.0130   38.2735 C   0  0  0  0  0  0  0  0  0  0  0  0
   38.6602  -21.4471   39.4288 C   0  0  0  0  0  0  0  0  0  0  0  0
   38.2222  -21.7240   40.7850 C   0  0  0  0  0  0  0  0  0  0  0  0
   37.1080  -21.6388   41.3039 O   0  0  0  0  0  0  0  0  0  0  0  0
   39.3684  -22.1551   41.5255 N   0  0  0  0  0  0  0  0  0  0  0  0
   40.5437  -22.1587   40.6886 C   0  0  0  0  0  0  0  0  0  0  0  0
   40.0170  -21.7072   39.3774 C   0  0  0  0  0  0  0  0  0  0  0  0
   40.7595  -21.5472   38.2126 C   0  0  0  0  0  0  0  0  0  0  0  0
   42.0670  -21.7012   37.8744 C   0  0  0  0  0  0  0  0  0  0  0  0
   43.1420  -22.0958   38.6371 C   0  0  0  0  0  0  0  0  0  0  0  0
   44.4076  -22.1547   38.0461 C   0  0  0  0  0  0  0  0  0  0  0  0
   44.5341  -21.8127   36.7117 C   0  0  0  0  0  0  0  0  0  0  0  0
   43.4370  -21.4186   35.9656 C   0  0  0  0  0  0  0  0  0  0  0  0
   42.1838  -21.3549   36.5258 C   0  0  0  0  0  0  0  0  0  0  0  0
   40.9690  -20.9954   36.0313 N   0  0  0  0  0  0  0  0  0  0  0  0
   40.1134  -21.1222   37.1010 C   0  0  0  0  0  0  0  0  0  0  0  0
   38.7626  -20.8517   37.1135 C   0  0  0  0  0  0  0  0  0  0  0  0
   41.4076  -17.5104   35.1512 H   0  0  0  0  0  0  0  0  0  0  0  0
   39.3941  -22.4393   42.5420 H   0  0  0  0  0  0  0  0  0  0  0  0
   41.0546  -18.6233   33.1886 C   0  0  0  0  0  0  0  0  0  0  0  0
   40.3252  -17.4858   32.8408 O   0  0  0  0  0  0  0  0  0  0  0  0
   39.7138  -17.6432   32.0771 H   0  0  0  0  0  0  0  0  0  0  0  0
  2  1  1  0  0  0
  2  3  1  0  0  0
  3  4  1  0  0  0
  4  5  1  0  0  0
  5  6  1  0  0  0
  6  7  1  0  0  0
  6 34  1  0  0  0
 34 35  1  0  0  0
  4  8  1  0  0  0
  8  9  1  0  0  0
  9 10  2  0  0  0
 10 11  1  0  0  0
 11 12  2  0  0  0
 12 13  1  0  0  0
 13 14  2  0  0  0
 14 15  1  0  0  0
 15 16  2  0  0  0
 16 17  1  0  0  0
 17 18  2  0  0  0
 17 19  1  0  0  0
 19 20  1  0  0  0
 20 21  1  0  0  0
 21 22  2  0  0  0
 22 23  1  0  0  0
 23 24  2  0  0  0
 24 25  1  0  0  0
 25 26  2  0  0  0
 26 27  1  0  0  0
 27 28  2  0  0  0
 28 29  1  0  0  0
 29 30  1  0  0  0
 30 31  2  0  0  0
  6  2  1  0  0  0
 31  8  1  0  0  0
 29  2  1  0  0  0
 14  9  1  0  0  0
 31 15  1  0  0  0
 21 16  1  0  0  0
 30 22  1  0  0  0
 28 23  1  0  0  0
  7 32  1  0  0  0
 35 36  1  0  0  0
 19 33  1  0  0  0
M  END
> <minimizedAffinity>
-5.76259

> <CNNscore>
0.3963257670

> <CNNaffinity>
4.8879919052

> <CNN_VS>
1.9372371435

> <CNNaffinity_variance>
0.1395575255

$$$$
[H]OC([H])([H])[C@@]1(O[H])C([H])([H])[C@@]2([H])O[C@]1(C([H])([H])[H])n1c3c([H])c([H])c([H])c([H])c3c3c4c(c5c6c([H])c([H])c([H])c([H])c6n2c5c31)C(=O)N([H])C4([H])[H]


 36 43  0  0  0  0  0  0  0  0999 V2000
   39.9020  -18.3867   33.9056 C   0  0  0  0  0  0  0  0  0  0  0  0
   39.7312  -19.5763   34.7870 C   0  0  0  0  0  0  0  0  0  0  0  0
   40.7557  -19.3331   35.7431 O   0  0  0  0  0  0  0  0  0  0  0  0
   41.2236  -20.5082   36.2230 C   0  0  0  0  0  0  0  0  0  0  0  0
   41.1363  -21.4949   35.1384 C   0  0  0  0  0  0  0  0  0  0  0  0
   40.1621  -20.8711   34.1638 C   0  0  0  0  0  0  0  0  0  0  0  0
   39.1213  -21.7746   34.0098 O   0  0  0  0  0  0  0  0  0  0  0  0
   40.5096  -20.8896   37.4485 N   0  0  0  0  0  0  0  0  0  0  0  0
   40.9776  -21.4586   38.5460 C   0  0  0  0  0  0  0  0  0  0  0  0
   42.2617  -21.8476   38.8268 C   0  0  0  0  0  0  0  0  0  0  0  0
   42.5192  -22.4312   40.0612 C   0  0  0  0  0  0  0  0  0  0  0  0
   41.5131  -22.6130   40.9751 C   0  0  0  0  0  0  0  0  0  0  0  0
   40.2006  -22.2167   40.6911 C   0  0  0  0  0  0  0  0  0  0  0  0
   39.9590  -21.6446   39.4758 C   0  0  0  0  0  0  0  0  0  0  0  0
   38.8197  -21.1518   38.8812 C   0  0  0  0  0  0  0  0  0  0  0  0
   37.4973  -21.0601   39.2758 C   0  0  0  0  0  0  0  0  0  0  0  0
   36.7608  -21.4204   40.4739 C   0  0  0  0  0  0  0  0  0  0  0  0
   37.1391  -21.9394   41.5254 O   0  0  0  0  0  0  0  0  0  0  0  0
   35.3927  -21.0593   40.2603 N   0  0  0  0  0  0  0  0  0  0  0  0
   35.2172  -20.4800   38.9507 C   0  0  0  0  0  0  0  0  0  0  0  0
   36.5906  -20.5070   38.3908 C   0  0  0  0  0  0  0  0  0  0  0  0
   36.9671  -20.0466   37.1339 C   0  0  0  0  0  0  0  0  0  0  0  0
   36.3180  -19.4913   36.0765 C   0  0  0  0  0  0  0  0  0  0  0  0
   34.9864  -19.1872   35.9111 C   0  0  0  0  0  0  0  0  0  0  0  0
   34.5631  -18.6311   34.7002 C   0  0  0  0  0  0  0  0  0  0  0  0
   35.5012  -18.4065   33.7087 C   0  0  0  0  0  0  0  0  0  0  0  0
   36.8355  -18.7213   33.8995 C   0  0  0  0  0  0  0  0  0  0  0  0
   37.2735  -19.2673   35.0821 C   0  0  0  0  0  0  0  0  0  0  0  0
   38.4978  -19.6721   35.5141 N   0  0  0  0  0  0  0  0  0  0  0  0
   38.2710  -20.1514   36.7835 C   0  0  0  0  0  0  0  0  0  0  0  0
   39.2035  -20.6979   37.6378 C   0  0  0  0  0  0  0  0  0  0  0  0
   39.3432  -22.3759   33.2587 H   0  0  0  0  0  0  0  0  0  0  0  0
   34.5930  -21.1822   40.9388 H   0  0  0  0  0  0  0  0  0  0  0  0
   40.8532  -20.7117   32.8521 C   0  0  0  0  0  0  0  0  0  0  0  0
   42.0027  -21.5025   32.8625 O   0  0  0  0  0  0  0  0  0  0  0  0
   42.8349  -20.9657   32.8973 H   0  0  0  0  0  0  0  0  0  0  0  0
  2  1  1  0  0  0
  2  3  1  0  0  0
  3  4  1  0  0  0
  4  5  1  0  0  0
  5  6  1  0  0  0
  6  7  1  0  0  0
  6 34  1  0  0  0
 34 35  1  0  0  0
  4  8  1  0  0  0
  8  9  1  0  0  0
  9 10  2  0  0  0
 10 11  1  0  0  0
 11 12  2  0  0  0
 12 13  1  0  0  0
 13 14  2  0  0  0
 14 15  1  0  0  0
 15 16  2  0  0  0
 16 17  1  0  0  0
 17 18  2  0  0  0
 17 19  1  0  0  0
 19 20  1  0  0  0
 20 21  1  0  0  0
 21 22  2  0  0  0
 22 23  1  0  0  0
 23 24  2  0  0  0
 24 25  1  0  0  0
 25 26  2  0  0  0
 26 27  1  0  0  0
 27 28  2  0  0  0
 28 29  1  0  0  0
 29 30  1  0  0  0
 30 31  2  0  0  0
  6  2  1  0  0  0
 31  8  1  0  0  0
 29  2  1  0  0  0
 14  9  1  0  0  0
 31 15  1  0  0  0
 21 16  1  0  0  0
 30 22  1  0  0  0
 28 23  1  0  0  0
  7 32  1  0  0  0
 35 36  1  0  0  0
 19 33  1  0  0  0
M  END
> <minimizedAffinity>
-6.41346

> <CNNscore>
0.3938021660

> <CNNaffinity>
4.8714742661

> <CNN_VS>
1.9183970690

> <CNNaffinity_variance>
0.3315862715

$$$$
[H]OC([H])([H])[C@@]1(O[H])C([H])([H])[C@@]2([H])O[C@]1(C([H])([H])[H])n1c3c([H])c([H])c([H])c([H])c3c3c4c(c5c6c([H])c([H])c([H])c([H])c6n2c5c31)C(=O)N([H])C4([H])[H]


 36 43  0  0  0  0  0  0  0  0999 V2000
   34.6526  -10.9907   34.9026 C   0  0  0  0  0  0  0  0  0  0  0  0
   33.9337  -10.8935   36.2045 C   0  0  0  0  0  0  0  0  0  0  0  0
   32.8117  -10.1099   35.8170 O   0  0  0  0  0  0  0  0  0  0  0  0
   32.3877   -9.3664   36.8646 C   0  0  0  0  0  0  0  0  0  0  0  0
   33.5676   -9.0231   37.6694 C   0  0  0  0  0  0  0  0  0  0  0  0
   34.6117  -10.0203   37.2185 C   0  0  0  0  0  0  0  0  0  0  0  0
   35.0150  -10.7122   38.3506 O   0  0  0  0  0  0  0  0  0  0  0  0
   31.3318  -10.0685   37.6058 N   0  0  0  0  0  0  0  0  0  0  0  0
   30.2390   -9.5809   38.1675 C   0  0  0  0  0  0  0  0  0  0  0  0
   29.8053   -8.2812   38.2081 C   0  0  0  0  0  0  0  0  0  0  0  0
   28.6119   -8.0041   38.8635 C   0  0  0  0  0  0  0  0  0  0  0  0
   27.8868   -9.0067   39.4547 C   0  0  0  0  0  0  0  0  0  0  0  0
   28.3274  -10.3351   39.4149 C   0  0  0  0  0  0  0  0  0  0  0  0
   29.5007  -10.5959   38.7686 C   0  0  0  0  0  0  0  0  0  0  0  0
   30.2100  -11.7537   38.5433 C   0  0  0  0  0  0  0  0  0  0  0  0
   30.0162  -13.0779   38.8919 C   0  0  0  0  0  0  0  0  0  0  0  0
   28.9884  -13.8044   39.6156 C   0  0  0  0  0  0  0  0  0  0  0  0
   27.9496  -13.4115   40.1490 O   0  0  0  0  0  0  0  0  0  0  0  0
   29.3718  -15.1830   39.6351 N   0  0  0  0  0  0  0  0  0  0  0  0
   30.6271  -15.3724   38.9495 C   0  0  0  0  0  0  0  0  0  0  0  0
   30.9690  -14.0003   38.5013 C   0  0  0  0  0  0  0  0  0  0  0  0
   32.0997  -13.6377   37.7776 C   0  0  0  0  0  0  0  0  0  0  0  0
   33.1822  -14.2971   37.2866 C   0  0  0  0  0  0  0  0  0  0  0  0
   33.5185  -15.6294   37.3565 C   0  0  0  0  0  0  0  0  0  0  0  0
   34.7171  -16.0575   36.7781 C   0  0  0  0  0  0  0  0  0  0  0  0
   35.5246  -15.1233   36.1546 C   0  0  0  0  0  0  0  0  0  0  0  0
   35.1640  -13.7882   36.0977 C   0  0  0  0  0  0  0  0  0  0  0  0
   33.9899  -13.3458   36.6583 C   0  0  0  0  0  0  0  0  0  0  0  0
   33.4184  -12.1154   36.7526 N   0  0  0  0  0  0  0  0  0  0  0  0
   32.2543  -12.3321   37.4531 C   0  0  0  0  0  0  0  0  0  0  0  0
   31.3270  -11.3838   37.8256 C   0  0  0  0  0  0  0  0  0  0  0  0
   35.7803  -10.2323   38.7494 H   0  0  0  0  0  0  0  0  0  0  0  0
   28.8404  -15.9808   40.0777 H   0  0  0  0  0  0  0  0  0  0  0  0
   35.7785   -9.2624   36.6819 C   0  0  0  0  0  0  0  0  0  0  0  0
   35.4082   -7.9240   36.5467 O   0  0  0  0  0  0  0  0  0  0  0  0
   35.3195   -7.6463   35.5997 H   0  0  0  0  0  0  0  0  0  0  0  0
  2  1  1  0  0  0
  2  3  1  0  0  0
  3  4  1  0  0  0
  4  5  1  0  0  0
  5  6  1  0  0  0
  6  7  1  0  0  0
  6 34  1  0  0  0
 34 35  1  0  0  0
  4  8  1  0  0  0
  8  9  1  0  0  0
  9 10  2  0  0  0
 10 11  1  0  0  0
 11 12  2  0  0  0
 12 13  1  0  0  0
 13 14  2  0  0  0
 14 15  1  0  0  0
 15 16  2  0  0  0
 16 17  1  0  0  0
 17 18  2  0  0  0
 17 19  1  0  0  0
 19 20  1  0  0  0
 20 21  1  0  0  0
 21 22  2  0  0  0
 22 23  1  0  0  0
 23 24  2  0  0  0
 24 25  1  0  0  0
 25 26  2  0  0  0
 26 27  1  0  0  0
 27 28  2  0  0  0
 28 29  1  0  0  0
 29 30  1  0  0  0
 30 31  2  0  0  0
  6  2  1  0  0  0
 31  8  1  0  0  0
 29  2  1  0  0  0
 14  9  1  0  0  0
 31 15  1  0  0  0
 21 16  1  0  0  0
 30 22  1  0  0  0
 28 23  1  0  0  0
  7 32  1  0  0  0
 35 36  1  0  0  0
 19 33  1  0  0  0
M  END
> <minimizedAffinity>
22.99475

> <CNNscore>
0.3818517923

> <CNNaffinity>
5.8708062172

> <CNN_VS>
2.2417778969

> <CNNaffinity_variance>
0.3232588172

$$$$
[H]OC([H])([H])[C@@]1(O[H])C([H])([H])[C@@]2([H])O[C@]1(C([H])([H])[H])n1c3c([H])c([H])c([H])c([H])c3c3c4c(c5c6c([H])c([H])c([H])c([H])c6n2c5c31)C(=O)N([H])C4=O


 37 44  0  0  0  0  0  0  0  0999 V2000
   37.3680  -23.9522   36.3053 C   0  0  0  0  0  0  0  0  0  0  0  0
   38.7883  -23.4755   36.0579 C   0  0  0  0  0  0  0  0  0  0  0  0
   38.5483  -22.1563   35.5896 O   0  0  0  0  0  0  0  0  0  0  0  0
   39.5200  -21.8364   34.6784 C   0  0  0  0  0  0  0  0  0  0  0  0
   39.9872  -23.0841   34.0361 C   0  0  0  0  0  0  0  0  0  0  0  0
   39.4835  -24.1752   34.9515 C   0  0  0  0  0  0  0  0  0  0  0  0
   40.5892  -24.9148   35.3683 O   0  0  0  0  0  0  0  0  0  0  0  0
   40.5901  -21.1181   35.4153 N   0  0  0  0  0  0  0  0  0  0  0  0
   41.3000  -20.0864   34.9828 C   0  0  0  0  0  0  0  0  0  0  0  0
   41.2759  -19.4201   33.7841 C   0  0  0  0  0  0  0  0  0  0  0  0
   42.1205  -18.3664   33.5696 C   0  0  0  0  0  0  0  0  0  0  0  0
   43.0006  -17.9620   34.5464 C   0  0  0  0  0  0  0  0  0  0  0  0
   43.0372  -18.6304   35.7724 C   0  0  0  0  0  0  0  0  0  0  0  0
   42.1957  -19.6757   35.9783 C   0  0  0  0  0  0  0  0  0  0  0  0
   41.9853  -20.5327   37.0569 C   0  0  0  0  0  0  0  0  0  0  0  0
   42.5547  -20.6649   38.3214 C   0  0  0  0  0  0  0  0  0  0  0  0
   43.5949  -19.9023   38.9919 C   0  0  0  0  0  0  0  0  0  0  0  0
   44.2872  -18.9148   38.6446 O   0  0  0  0  0  0  0  0  0  0  0  0
   43.7609  -20.4984   40.2862 N   0  0  0  0  0  0  0  0  0  0  0  0
   42.8477  -21.6092   40.4278 C   0  0  0  0  0  0  0  0  0  0  0  0
   42.8138  -22.2866   41.4870 O   0  0  0  0  0  0  0  0  0  0  0  0
   42.1146  -21.6807   39.1845 C   0  0  0  0  0  0  0  0  0  0  0  0
   41.1143  -22.5341   38.7504 C   0  0  0  0  0  0  0  0  0  0  0  0
   40.4744  -23.6406   39.2990 C   0  0  0  0  0  0  0  0  0  0  0  0
   40.6230  -24.2746   40.5026 C   0  0  0  0  0  0  0  0  0  0  0  0
   39.8401  -25.4072   40.7616 C   0  0  0  0  0  0  0  0  0  0  0  0
   38.9523  -25.8736   39.8463 C   0  0  0  0  0  0  0  0  0  0  0  0
   38.7944  -25.2377   38.6220 C   0  0  0  0  0  0  0  0  0  0  0  0
   39.5612  -24.1206   38.3625 C   0  0  0  0  0  0  0  0  0  0  0  0
   39.6052  -23.3513   37.2567 N   0  0  0  0  0  0  0  0  0  0  0  0
   40.5597  -22.3886   37.4996 C   0  0  0  0  0  0  0  0  0  0  0  0
   40.9933  -21.3922   36.6547 C   0  0  0  0  0  0  0  0  0  0  0  0
   41.2151  -24.9468   34.5781 H   0  0  0  0  0  0  0  0  0  0  0  0
   44.4393  -20.1863   41.0293 H   0  0  0  0  0  0  0  0  0  0  0  0
   38.6071  -25.0920   34.1424 C   0  0  0  0  0  0  0  0  0  0  0  0
   38.6956  -24.6853   32.7921 O   0  0  0  0  0  0  0  0  0  0  0  0
   37.9106  -25.1154   32.3384 H   0  0  0  0  0  0  0  0  0  0  0  0
  2  1  1  0  0  0
  2  3  1  0  0  0
  3  4  1  0  0  0
  4  5  1  0  0  0
  5  6  1  0  0  0
  6  7  1  0  0  0
  6 35  1  0  0  0
 35 36  1  0  0  0
  4  8  1  0  0  0
  8  9  1  0  0  0
  9 10  2  0  0  0
 10 11  1  0  0  0
 11 12  2  0  0  0
 12 13  1  0  0  0
 13 14  2  0  0  0
 14 15  1  0  0  0
 15 16  2  0  0  0
 16 17  1  0  0  0
 17 18  2  0  0  0
 17 19  1  0  0  0
 19 20  1  0  0  0
 20 21  2  0  0  0
 20 22  1  0  0  0
 22 23  2  0  0  0
 23 24  1  0  0  0
 24 25  2  0  0  0
 25 26  1  0  0  0
 26 27  2  0  0  0
 27 28  1  0  0  0
 28 29  2  0  0  0
 29 30  1  0  0  0
 30 31  1  0  0  0
 31 32  2  0  0  0
  6  2  1  0  0  0
 32  8  1  0  0  0
 30  2  1  0  0  0
 14  9  1  0  0  0
 32 15  1  0  0  0
 22 16  1  0  0  0
 31 23  1  0  0  0
 29 24  1  0  0  0
  7 33  1  0  0  0
 36 37  1  0  0  0
 19 34  1  0  0  0
M  END
> <minimizedAffinity>
-4.23544

> <CNNscore>
0.5139175653

> <CNNaffinity>
4.8791537285

> <CNN_VS>
2.5074827671

> <CNNaffinity_variance>
0.4967463613

$$$$
[H]OC([H])([H])[C@@]1(O[H])C([H])([H])[C@@]2([H])O[C@]1(C([H])([H])[H])n1c3c([H])c([H])c([H])c([H])c3c3c4c(c5c6c([H])c([H])c([H])c([H])c6n2c5c31)C(=O)N([H])C4=O


 37 44  0  0  0  0  0  0  0  0999 V2000
   38.6278  -20.5462   33.5969 C   0  0  0  0  0  0  0  0  0  0  0  0
   38.7197  -20.4643   35.1104 C   0  0  0  0  0  0  0  0  0  0  0  0
   37.3775  -20.7530   35.4743 O   0  0  0  0  0  0  0  0  0  0  0  0
   37.0791  -20.0577   36.6164 C   0  0  0  0  0  0  0  0  0  0  0  0
   37.9112  -18.8354   36.6502 C   0  0  0  0  0  0  0  0  0  0  0  0
   38.9951  -19.1049   35.6329 C   0  0  0  0  0  0  0  0  0  0  0  0
   40.2202  -18.9986   36.2894 O   0  0  0  0  0  0  0  0  0  0  0  0
   37.3280  -20.9702   37.7607 N   0  0  0  0  0  0  0  0  0  0  0  0
   36.6123  -21.0682   38.8713 C   0  0  0  0  0  0  0  0  0  0  0  0
   35.4993  -20.3814   39.2849 C   0  0  0  0  0  0  0  0  0  0  0  0
   34.9292  -20.6668   40.4945 C   0  0  0  0  0  0  0  0  0  0  0  0
   35.4599  -21.6404   41.3085 C   0  0  0  0  0  0  0  0  0  0  0  0
   36.5931  -22.3485   40.9015 C   0  0  0  0  0  0  0  0  0  0  0  0
   37.1538  -22.0598   39.6992 C   0  0  0  0  0  0  0  0  0  0  0  0
   38.2581  -22.5651   39.0158 C   0  0  0  0  0  0  0  0  0  0  0  0
   39.2161  -23.5370   39.2962 C   0  0  0  0  0  0  0  0  0  0  0  0
   39.3860  -24.4175   40.4403 C   0  0  0  0  0  0  0  0  0  0  0  0
   38.7390  -24.5673   41.5052 O   0  0  0  0  0  0  0  0  0  0  0  0
   40.5502  -25.2106   40.1690 N   0  0  0  0  0  0  0  0  0  0  0  0
   41.1002  -24.8392   38.8856 C   0  0  0  0  0  0  0  0  0  0  0  0
   42.1292  -25.4053   38.4354 O   0  0  0  0  0  0  0  0  0  0  0  0
   40.2424  -23.7949   38.3739 C   0  0  0  0  0  0  0  0  0  0  0  0
   40.2750  -23.0677   37.1959 C   0  0  0  0  0  0  0  0  0  0  0  0
   41.1341  -23.0257   36.1028 C   0  0  0  0  0  0  0  0  0  0  0  0
   42.2756  -23.7233   35.8143 C   0  0  0  0  0  0  0  0  0  0  0  0
   42.9534  -23.4310   34.6235 C   0  0  0  0  0  0  0  0  0  0  0  0
   42.4975  -22.4793   33.7693 C   0  0  0  0  0  0  0  0  0  0  0  0
   41.3406  -21.7656   34.0532 C   0  0  0  0  0  0  0  0  0  0  0  0
   40.6678  -22.0508   35.2233 C   0  0  0  0  0  0  0  0  0  0  0  0
   39.5493  -21.4907   35.7253 N   0  0  0  0  0  0  0  0  0  0  0  0
   39.3197  -22.1132   36.9322 C   0  0  0  0  0  0  0  0  0  0  0  0
   38.3146  -21.8615   37.8384 C   0  0  0  0  0  0  0  0  0  0  0  0
   40.1106  -18.2554   36.9623 H   0  0  0  0  0  0  0  0  0  0  0  0
   40.9542  -25.9529   40.7981 H   0  0  0  0  0  0  0  0  0  0  0  0
   38.9421  -18.0142   34.5982 C   0  0  0  0  0  0  0  0  0  0  0  0
   37.5944  -17.6078   34.4752 O   0  0  0  0  0  0  0  0  0  0  0  0
   37.5527  -17.1026   33.6091 H   0  0  0  0  0  0  0  0  0  0  0  0
  2  1  1  0  0  0
  2  3  1  0  0  0
  3  4  1  0  0  0
  4  5  1  0  0  0
  5  6  1  0  0  0
  6  7  1  0  0  0
  6 35  1  0  0  0
 35 36  1  0  0  0
  4  8  1  0  0  0
  8  9  1  0  0  0
  9 10  2  0  0  0
 10 11  1  0  0  0
 11 12  2  0  0  0
 12 13  1  0  0  0
 13 14  2  0  0  0
 14 15  1  0  0  0
 15 16  2  0  0  0
 16 17  1  0  0  0
 17 18  2  0  0  0
 17 19  1  0  0  0
 19 20  1  0  0  0
 20 21  2  0  0  0
 20 22  1  0  0  0
 22 23  2  0  0  0
 23 24  1  0  0  0
 24 25  2  0  0  0
 25 26  1  0  0  0
 26 27  2  0  0  0
 27 28  1  0  0  0
 28 29  2  0  0  0
 29 30  1  0  0  0
 30 31  1  0  0  0
 31 32  2  0  0  0
  6  2  1  0  0  0
 32  8  1  0  0  0
 30  2  1  0  0  0
 14  9  1  0  0  0
 32 15  1  0  0  0
 22 16  1  0  0  0
 31 23  1  0  0  0
 29 24  1  0  0  0
  7 33  1  0  0  0
 36 37  1  0  0  0
 19 34  1  0  0  0
M  END
> <minimizedAffinity>
-3.27990

> <CNNscore>
0.4853540659

> <CNNaffinity>
4.9400033951

> <CNN_VS>
2.3976507187

> <CNNaffinity_variance>
0.1847483218

$$$$
[H]OC([H])([H])[C@@]1(O[H])C([H])([H])[C@@]2([H])O[C@]1(C([H])([H])[H])n1c3c([H])c([H])c([H])c([H])c3c3c4c(c5c6c([H])c([H])c([H])c([H])c6n2c5c31)C(=O)N([H])C4=O


 37 44  0  0  0  0  0  0  0  0999 V2000
   41.1047  -21.0614   33.4682 C   0  0  0  0  0  0  0  0  0  0  0  0
   40.3779  -20.4927   34.6741 C   0  0  0  0  0  0  0  0  0  0  0  0
   39.0940  -21.0776   34.5109 O   0  0  0  0  0  0  0  0  0  0  0  0
   38.1551  -20.2027   34.9902 C   0  0  0  0  0  0  0  0  0  0  0  0
   38.6819  -18.8279   34.8483 C   0  0  0  0  0  0  0  0  0  0  0  0
   40.1622  -19.0272   34.6221 C   0  0  0  0  0  0  0  0  0  0  0  0
   40.8357  -18.3296   35.6236 O   0  0  0  0  0  0  0  0  0  0  0  0
   37.8809  -20.5847   36.3984 N   0  0  0  0  0  0  0  0  0  0  0  0
   36.7084  -20.5648   37.0150 C   0  0  0  0  0  0  0  0  0  0  0  0
   35.4669  -20.1878   36.5698 C   0  0  0  0  0  0  0  0  0  0  0  0
   34.3890  -20.2573   37.4082 C   0  0  0  0  0  0  0  0  0  0  0  0
   34.5331  -20.7033   38.7015 C   0  0  0  0  0  0  0  0  0  0  0  0
   35.7908  -21.0907   39.1697 C   0  0  0  0  0  0  0  0  0  0  0  0
   36.8565  -21.0190   38.3316 C   0  0  0  0  0  0  0  0  0  0  0  0
   38.2091  -21.3197   38.4808 C   0  0  0  0  0  0  0  0  0  0  0  0
   38.9924  -21.7885   39.5331 C   0  0  0  0  0  0  0  0  0  0  0  0
   38.6478  -22.1679   40.8934 C   0  0  0  0  0  0  0  0  0  0  0  0
   37.5637  -22.1859   41.5255 O   0  0  0  0  0  0  0  0  0  0  0  0
   39.8713  -22.5793   41.5193 N   0  0  0  0  0  0  0  0  0  0  0  0
   40.9600  -22.4624   40.5766 C   0  0  0  0  0  0  0  0  0  0  0  0
   42.1346  -22.7701   40.9047 O   0  0  0  0  0  0  0  0  0  0  0  0
   40.3730  -21.9671   39.3525 C   0  0  0  0  0  0  0  0  0  0  0  0
   40.9255  -21.6689   38.1183 C   0  0  0  0  0  0  0  0  0  0  0  0
   42.2166  -21.6866   37.6012 C   0  0  0  0  0  0  0  0  0  0  0  0
   43.4179  -22.0254   38.1625 C   0  0  0  0  0  0  0  0  0  0  0  0
   44.5757  -21.9088   37.3824 C   0  0  0  0  0  0  0  0  0  0  0  0
   44.5185  -21.4702   36.0988 C   0  0  0  0  0  0  0  0  0  0  0  0
   43.3047  -21.1235   35.5202 C   0  0  0  0  0  0  0  0  0  0  0  0
   42.1610  -21.2385   36.2831 C   0  0  0  0  0  0  0  0  0  0  0  0
   40.8847  -20.9493   35.9603 N   0  0  0  0  0  0  0  0  0  0  0  0
   40.1379  -21.2095   37.0878 C   0  0  0  0  0  0  0  0  0  0  0  0
   38.7844  -21.0346   37.2674 C   0  0  0  0  0  0  0  0  0  0  0  0
   40.2957  -17.4944   35.7909 H   0  0  0  0  0  0  0  0  0  0  0  0
   39.9761  -22.9170   42.5117 H   0  0  0  0  0  0  0  0  0  0  0  0
   40.5211  -18.3881   33.3083 C   0  0  0  0  0  0  0  0  0  0  0  0
   39.3238  -17.9254   32.7176 O   0  0  0  0  0  0  0  0  0  0  0  0
   39.5527  -17.7686   31.7532 H   0  0  0  0  0  0  0  0  0  0  0  0
  2  1  1  0  0  0
  2  3  1  0  0  0
  3  4  1  0  0  0
  4  5  1  0  0  0
  5  6  1  0  0  0
  6  7  1  0  0  0
  6 35  1  0  0  0
 35 36  1  0  0  0
  4  8  1  0  0  0
  8  9  1  0  0  0
  9 10  2  0  0  0
 10 11  1  0  0  0
 11 12  2  0  0  0
 12 13  1  0  0  0
 13 14  2  0  0  0
 14 15  1  0  0  0
 15 16  2  0  0  0
 16 17  1  0  0  0
 17 18  2  0  0  0
 17 19  1  0  0  0
 19 20  1  0  0  0
 20 21  2  0  0  0
 20 22  1  0  0  0
 22 23  2  0  0  0
 23 24  1  0  0  0
 24 25  2  0  0  0
 25 26  1  0  0  0
 26 27  2  0  0  0
 27 28  1  0  0  0
 28 29  2  0  0  0
 29 30  1  0  0  0
 30 31  1  0  0  0
 31 32  2  0  0  0
  6  2  1  0  0  0
 32  8  1  0  0  0
 30  2  1  0  0  0
 14  9  1  0  0  0
 32 15  1  0  0  0
 22 16  1  0  0  0
 31 23  1  0  0  0
 29 24  1  0  0  0
  7 33  1  0  0  0
 36 37  1  0  0  0
 19 34  1  0  0  0
M  END
> <minimizedAffinity>
-5.49776

> <CNNscore>
0.4561284781

> <CNNaffinity>
4.9917192459

> <CNN_VS>
2.2768652439

> <CNNaffinity_variance>
0.1634629965

$$$$
[H]OC([H])([H])[C@@]1(O[H])C([H])([H])[C@@]2([H])O[C@]1(C([H])([H])[H])n1c3c([H])c([H])c([H])c([H])c3c3c4c(c5c6c([H])c([H])c([H])c([H])c6n2c5c31)C(=O)N([H])C4=O


 37 44  0  0  0  0  0  0  0  0999 V2000
   30.6841  -19.1827   35.5537 C   0  0  0  0  0  0  0  0  0  0  0  0
   31.8277  -20.1619   35.7515 C   0  0  0  0  0  0  0  0  0  0  0  0
   32.6507  -19.4317   36.6498 O   0  0  0  0  0  0  0  0  0  0  0  0
   33.9585  -19.7509   36.3961 C   0  0  0  0  0  0  0  0  0  0  0  0
   34.0792  -20.1305   34.9716 C   0  0  0  0  0  0  0  0  0  0  0  0
   32.6540  -20.3885   34.5421 C   0  0  0  0  0  0  0  0  0  0  0  0
   32.5922  -21.6961   34.0627 O   0  0  0  0  0  0  0  0  0  0  0  0
   34.3301  -20.8441   37.3293 N   0  0  0  0  0  0  0  0  0  0  0  0
   35.4917  -21.0041   37.9461 C   0  0  0  0  0  0  0  0  0  0  0  0
   36.6436  -20.2610   37.8966 C   0  0  0  0  0  0  0  0  0  0  0  0
   37.7309  -20.6338   38.6373 C   0  0  0  0  0  0  0  0  0  0  0  0
   37.6855  -21.7518   39.4374 C   0  0  0  0  0  0  0  0  0  0  0  0
   36.5197  -22.5189   39.4985 C   0  0  0  0  0  0  0  0  0  0  0  0
   35.4441  -22.1427   38.7604 C   0  0  0  0  0  0  0  0  0  0  0  0
   34.1658  -22.6735   38.5984 C   0  0  0  0  0  0  0  0  0  0  0  0
   33.5021  -23.7878   39.1068 C   0  0  0  0  0  0  0  0  0  0  0  0
   33.9259  -24.8139   40.0453 C   0  0  0  0  0  0  0  0  0  0  0  0
   34.9970  -25.0095   40.6693 O   0  0  0  0  0  0  0  0  0  0  0  0
   32.8131  -25.7067   40.1959 N   0  0  0  0  0  0  0  0  0  0  0  0
   31.7151  -25.2543   39.3729 C   0  0  0  0  0  0  0  0  0  0  0  0
   30.6270  -25.8843   39.3440 O   0  0  0  0  0  0  0  0  0  0  0  0
   32.1827  -24.0579   38.7108 C   0  0  0  0  0  0  0  0  0  0  0  0
   31.5691  -23.1987   37.8148 C   0  0  0  0  0  0  0  0  0  0  0  0
   30.3267  -23.1706   37.1901 C   0  0  0  0  0  0  0  0  0  0  0  0
   29.2516  -24.0143   37.2626 C   0  0  0  0  0  0  0  0  0  0  0  0
   28.1282  -23.7332   36.4741 C   0  0  0  0  0  0  0  0  0  0  0  0
   28.0969  -22.6521   35.6533 C   0  0  0  0  0  0  0  0  0  0  0  0
   29.1827  -21.7903   35.5723 C   0  0  0  0  0  0  0  0  0  0  0  0
   30.2908  -22.0610   36.3482 C   0  0  0  0  0  0  0  0  0  0  0  0
   31.4603  -21.3962   36.4308 N   0  0  0  0  0  0  0  0  0  0  0  0
   32.2370  -22.1005   37.3239 C   0  0  0  0  0  0  0  0  0  0  0  0
   33.5310  -21.8380   37.7131 C   0  0  0  0  0  0  0  0  0  0  0  0
   33.4684  -21.8601   33.5910 H   0  0  0  0  0  0  0  0  0  0  0  0
   32.7852  -26.5637   40.8080 H   0  0  0  0  0  0  0  0  0  0  0  0
   32.3429  -19.4714   33.3909 C   0  0  0  0  0  0  0  0  0  0  0  0
   32.9924  -18.2410   33.6380 O   0  0  0  0  0  0  0  0  0  0  0  0
   32.5494  -17.5843   33.0218 H   0  0  0  0  0  0  0  0  0  0  0  0
  2  1  1  0  0  0
  2  3  1  0  0  0
  3  4  1  0  0  0
  4  5  1  0  0  0
  5  6  1  0  0  0
  6  7  1  0  0  0
  6 35  1  0  0  0
 35 36  1  0  0  0
  4  8  1  0  0  0
  8  9  1  0  0  0
  9 10  2  0  0  0
 10 11  1  0  0  0
 11 12  2  0  0  0
 12 13  1  0  0  0
 13 14  2  0  0  0
 14 15  1  0  0  0
 15 16  2  0  0  0
 16 17  1  0  0  0
 17 18  2  0  0  0
 17 19  1  0  0  0
 19 20  1  0  0  0
 20 21  2  0  0  0
 20 22  1  0  0  0
 22 23  2  0  0  0
 23 24  1  0  0  0
 24 25  2  0  0  0
 25 26  1  0  0  0
 26 27  2  0  0  0
 27 28  1  0  0  0
 28 29  2  0  0  0
 29 30  1  0  0  0
 30 31  1  0  0  0
 31 32  2  0  0  0
  6  2  1  0  0  0
 32  8  1  0  0  0
 30  2  1  0  0  0
 14  9  1  0  0  0
 32 15  1  0  0  0
 22 16  1  0  0  0
 31 23  1  0  0  0
 29 24  1  0  0  0
  7 33  1  0  0  0
 36 37  1  0  0  0
 19 34  1  0  0  0
M  END
> <minimizedAffinity>
-5.43382

> <CNNscore>
0.4209764898

> <CNNaffinity>
4.6753940582

> <CNN_VS>
1.9682309628

> <CNNaffinity_variance>
0.5612415075

$$$$
[H]OC([H])([H])[C@@]1(O[H])C([H])([H])[C@@]2([H])O[C@]1(C([H])([H])[H])n1c3c([H])c([H])c([H])c([H])c3c3c4c(c5c6c([H])c([H])c([H])c([H])c6n2c5c31)C(=O)N([H])C4=O


 37 44  0  0  0  0  0  0  0  0999 V2000
   38.9745  -19.0637   34.8205 C   0  0  0  0  0  0  0  0  0  0  0  0
   38.4295  -19.5962   36.1340 C   0  0  0  0  0  0  0  0  0  0  0  0
   37.8272  -20.8072   35.7005 O   0  0  0  0  0  0  0  0  0  0  0  0
   36.7311  -21.0511   36.4853 C   0  0  0  0  0  0  0  0  0  0  0  0
   36.2016  -19.7557   36.9642 C   0  0  0  0  0  0  0  0  0  0  0  0
   37.3322  -18.7856   36.7134 C   0  0  0  0  0  0  0  0  0  0  0  0
   37.6587  -18.1994   37.9353 O   0  0  0  0  0  0  0  0  0  0  0  0
   37.1710  -21.9485   37.5832 N   0  0  0  0  0  0  0  0  0  0  0  0
   36.4858  -22.9490   38.1167 C   0  0  0  0  0  0  0  0  0  0  0  0
   35.2263  -23.4194   37.8449 C   0  0  0  0  0  0  0  0  0  0  0  0
   34.7283  -24.4848   38.5425 C   0  0  0  0  0  0  0  0  0  0  0  0
   35.4782  -25.0962   39.5202 C   0  0  0  0  0  0  0  0  0  0  0  0
   36.7626  -24.6288   39.8087 C   0  0  0  0  0  0  0  0  0  0  0  0
   37.2505  -23.5706   39.1121 C   0  0  0  0  0  0  0  0  0  0  0  0
   38.4586  -22.8772   39.1527 C   0  0  0  0  0  0  0  0  0  0  0  0
   39.6165  -22.9821   39.9203 C   0  0  0  0  0  0  0  0  0  0  0  0
   39.9905  -23.9107   40.9742 C   0  0  0  0  0  0  0  0  0  0  0  0
   39.3975  -24.8795   41.5078 O   0  0  0  0  0  0  0  0  0  0  0  0
   41.3098  -23.5342   41.3937 N   0  0  0  0  0  0  0  0  0  0  0  0
   41.7562  -22.3966   40.6228 C   0  0  0  0  0  0  0  0  0  0  0  0
   42.8907  -21.8896   40.8171 O   0  0  0  0  0  0  0  0  0  0  0  0
   40.6749  -22.0826   39.7170 C   0  0  0  0  0  0  0  0  0  0  0  0
   40.5377  -21.1037   38.7472 C   0  0  0  0  0  0  0  0  0  0  0  0
   41.3351  -20.0523   38.3075 C   0  0  0  0  0  0  0  0  0  0  0  0
   42.5742  -19.6233   38.6994 C   0  0  0  0  0  0  0  0  0  0  0  0
   43.1164  -18.4914   38.0769 C   0  0  0  0  0  0  0  0  0  0  0  0
   42.4365  -17.8278   37.1069 C   0  0  0  0  0  0  0  0  0  0  0  0
   41.1786  -18.2548   36.7025 C   0  0  0  0  0  0  0  0  0  0  0  0
   40.6406  -19.3702   37.3106 C   0  0  0  0  0  0  0  0  0  0  0  0
   39.4460  -19.9612   37.1104 N   0  0  0  0  0  0  0  0  0  0  0  0
   39.3889  -21.0151   37.9952 C   0  0  0  0  0  0  0  0  0  0  0  0
   38.3520  -21.8978   38.1967 C   0  0  0  0  0  0  0  0  0  0  0  0
   36.7878  -18.0907   38.4321 H   0  0  0  0  0  0  0  0  0  0  0  0
   41.8782  -24.0044   42.1457 H   0  0  0  0  0  0  0  0  0  0  0  0
   36.8173  -17.6953   35.8139 C   0  0  0  0  0  0  0  0  0  0  0  0
   35.4056  -17.7399   35.8542 O   0  0  0  0  0  0  0  0  0  0  0  0
   35.1053  -17.2110   35.0559 H   0  0  0  0  0  0  0  0  0  0  0  0
  2  1  1  0  0  0
  2  3  1  0  0  0
  3  4  1  0  0  0
  4  5  1  0  0  0
  5  6  1  0  0  0
  6  7  1  0  0  0
  6 35  1  0  0  0
 35 36  1  0  0  0
  4  8  1  0  0  0
  8  9  1  0  0  0
  9 10  2  0  0  0
 10 11  1  0  0  0
 11 12  2  0  0  0
 12 13  1  0  0  0
 13 14  2  0  0  0
 14 15  1  0  0  0
 15 16  2  0  0  0
 16 17  1  0  0  0
 17 18  2  0  0  0
 17 19  1  0  0  0
 19 20  1  0  0  0
 20 21  2  0  0  0
 20 22  1  0  0  0
 22 23  2  0  0  0
 23 24  1  0  0  0
 24 25  2  0  0  0
 25 26  1  0  0  0
 26 27  2  0  0  0
 27 28  1  0  0  0
 28 29  2  0  0  0
 29 30  1  0  0  0
 30 31  1  0  0  0
 31 32  2  0  0  0
  6  2  1  0  0  0
 32  8  1  0  0  0
 30  2  1  0  0  0
 14  9  1  0  0  0
 32 15  1  0  0  0
 22 16  1  0  0  0
 31 23  1  0  0  0
 29 24  1  0  0  0
  7 33  1  0  0  0
 36 37  1  0  0  0
 19 34  1  0  0  0
M  END
> <minimizedAffinity>
-3.08407

> <CNNscore>
0.4206867814

> <CNNaffinity>
4.9168777466

> <CNN_VS>
2.0684654713

> <CNNaffinity_variance>
0.3836510777

$$$$
[H]OC([H])([H])[C@@]1(O[H])C([H])([H])[C@@]2([H])O[C@]1(C([H])([H])[H])n1c3c([H])c([H])c([H])c([H])c3c3c4c(c5c6c([H])c([H])c([H])c([H])c6n2c5c31)C(=O)N([H])C4=O


 37 44  0  0  0  0  0  0  0  0999 V2000
   39.9670  -18.3829   33.7453 C   0  0  0  0  0  0  0  0  0  0  0  0
   39.8917  -19.6091   34.6379 C   0  0  0  0  0  0  0  0  0  0  0  0
   40.9435  -19.3371   35.5527 O   0  0  0  0  0  0  0  0  0  0  0  0
   41.5041  -20.5273   35.9346 C   0  0  0  0  0  0  0  0  0  0  0  0
   41.3258  -21.5017   34.8362 C   0  0  0  0  0  0  0  0  0  0  0  0
   40.2605  -20.8775   33.9657 C   0  0  0  0  0  0  0  0  0  0  0  0
   39.2077  -21.7868   33.8766 O   0  0  0  0  0  0  0  0  0  0  0  0
   40.8403  -20.9373   37.1977 N   0  0  0  0  0  0  0  0  0  0  0  0
   41.4079  -21.5228   38.2419 C   0  0  0  0  0  0  0  0  0  0  0  0
   42.7032  -21.9223   38.4521 C   0  0  0  0  0  0  0  0  0  0  0  0
   43.0533  -22.5152   39.6335 C   0  0  0  0  0  0  0  0  0  0  0  0
   42.1180  -22.7180   40.6215 C   0  0  0  0  0  0  0  0  0  0  0  0
   40.7949  -22.3167   40.4225 C   0  0  0  0  0  0  0  0  0  0  0  0
   40.4545  -21.7287   39.2471 C   0  0  0  0  0  0  0  0  0  0  0  0
   39.2559  -21.2270   38.7436 C   0  0  0  0  0  0  0  0  0  0  0  0
   37.9530  -21.1458   39.2302 C   0  0  0  0  0  0  0  0  0  0  0  0
   37.3741  -21.5518   40.5002 C   0  0  0  0  0  0  0  0  0  0  0  0
   37.8577  -22.0917   41.5247 O   0  0  0  0  0  0  0  0  0  0  0  0
   35.9815  -21.2131   40.4349 N   0  0  0  0  0  0  0  0  0  0  0  0
   35.6902  -20.6084   39.1554 C   0  0  0  0  0  0  0  0  0  0  0  0
   34.5258  -20.2275   38.8709 O   0  0  0  0  0  0  0  0  0  0  0  0
   36.9423  -20.5843   38.4342 C   0  0  0  0  0  0  0  0  0  0  0  0
   37.2717  -20.1206   37.1717 C   0  0  0  0  0  0  0  0  0  0  0  0
   36.5507  -19.5565   36.1244 C   0  0  0  0  0  0  0  0  0  0  0  0
   35.2226  -19.2539   35.9921 C   0  0  0  0  0  0  0  0  0  0  0  0
   34.7795  -18.7099   34.7795 C   0  0  0  0  0  0  0  0  0  0  0  0
   35.6392  -18.4850   33.7530 C   0  0  0  0  0  0  0  0  0  0  0  0
   36.9885  -18.7889   33.8771 C   0  0  0  0  0  0  0  0  0  0  0  0
   37.4307  -19.3228   35.0698 C   0  0  0  0  0  0  0  0  0  0  0  0
   38.6708  -19.7143   35.4242 N   0  0  0  0  0  0  0  0  0  0  0  0
   38.5638  -20.2052   36.7065 C   0  0  0  0  0  0  0  0  0  0  0  0
   39.5532  -20.7568   37.4886 C   0  0  0  0  0  0  0  0  0  0  0  0
   39.6324  -22.7013   33.8541 H   0  0  0  0  0  0  0  0  0  0  0  0
   35.2689  -21.3740   41.1939 H   0  0  0  0  0  0  0  0  0  0  0  0
   40.8300  -20.7105   32.5833 C   0  0  0  0  0  0  0  0  0  0  0  0
   41.5585  -21.8819   32.2774 O   0  0  0  0  0  0  0  0  0  0  0  0
   42.1397  -21.6314   31.4986 H   0  0  0  0  0  0  0  0  0  0  0  0
  2  1  1  0  0  0
  2  3  1  0  0  0
  3  4  1  0  0  0
  4  5  1  0  0  0
  5  6  1  0  0  0
  6  7  1  0  0  0
  6 35  1  0  0  0
 35 36  1  0  0  0
  4  8  1  0  0  0
  8  9  1  0  0  0
  9 10  2  0  0  0
 10 11  1  0  0  0
 11 12  2  0  0  0
 12 13  1  0  0  0
 13 14  2  0  0  0
 14 15  1  0  0  0
 15 16  2  0  0  0
 16 17  1  0  0  0
 17 18  2  0  0  0
 17 19  1  0  0  0
 19 20  1  0  0  0
 20 21  2  0  0  0
 20 22  1  0  0  0
 22 23  2  0  0  0
 23 24  1  0  0  0
 24 25  2  0  0  0
 25 26  1  0  0  0
 26 27  2  0  0  0
 27 28  1  0  0  0
 28 29  2  0  0  0
 29 30  1  0  0  0
 30 31  1  0  0  0
 31 32  2  0  0  0
  6  2  1  0  0  0
 32  8  1  0  0  0
 30  2  1  0  0  0
 14  9  1  0  0  0
 32 15  1  0  0  0
 22 16  1  0  0  0
 31 23  1  0  0  0
 29 24  1  0  0  0
  7 33  1  0  0  0
 36 37  1  0  0  0
 19 34  1  0  0  0
M  END
> <minimizedAffinity>
-6.68958

> <CNNscore>
0.4184709489

> <CNNaffinity>
4.9968748093

> <CNN_VS>
2.0910470486

> <CNNaffinity_variance>
0.4030210078

$$$$
[H]OC([H])([H])[C@@]1(O[H])C([H])([H])[C@@]2([H])O[C@]1(C([H])([H])[H])n1c3c([H])c([H])c([H])c([H])c3c3c4c(c5c6c([H])c([H])c([H])c([H])c6n2c5c31)C(=O)N([H])C4=O


 37 44  0  0  0  0  0  0  0  0999 V2000
   37.1264  -18.5767   35.7877 C   0  0  0  0  0  0  0  0  0  0  0  0
   37.5222  -19.9626   36.2655 C   0  0  0  0  0  0  0  0  0  0  0  0
   38.2516  -19.6404   37.4409 O   0  0  0  0  0  0  0  0  0  0  0  0
   39.2455  -20.5693   37.6024 C   0  0  0  0  0  0  0  0  0  0  0  0
   39.6241  -21.0853   36.2689 C   0  0  0  0  0  0  0  0  0  0  0  0
   38.4791  -20.6646   35.3776 C   0  0  0  0  0  0  0  0  0  0  0  0
   37.9556  -21.8188   34.7969 O   0  0  0  0  0  0  0  0  0  0  0  0
   38.7189  -21.6187   38.5110 N   0  0  0  0  0  0  0  0  0  0  0  0
   39.3873  -22.2610   39.4576 C   0  0  0  0  0  0  0  0  0  0  0  0
   40.6988  -22.1698   39.8491 C   0  0  0  0  0  0  0  0  0  0  0  0
   41.1641  -22.9512   40.8702 C   0  0  0  0  0  0  0  0  0  0  0  0
   40.3293  -23.8338   41.5153 C   0  0  0  0  0  0  0  0  0  0  0  0
   38.9912  -23.9383   41.1282 C   0  0  0  0  0  0  0  0  0  0  0  0
   38.5362  -23.1594   40.1136 C   0  0  0  0  0  0  0  0  0  0  0  0
   37.2927  -23.0233   39.4994 C   0  0  0  0  0  0  0  0  0  0  0  0
   36.0511  -23.6321   39.6684 C   0  0  0  0  0  0  0  0  0  0  0  0
   35.5976  -24.6474   40.6046 C   0  0  0  0  0  0  0  0  0  0  0  0
   36.1728  -25.2767   41.5255 O   0  0  0  0  0  0  0  0  0  0  0  0
   34.2131  -24.8790   40.3086 N   0  0  0  0  0  0  0  0  0  0  0  0
   33.8041  -24.0303   39.2131 C   0  0  0  0  0  0  0  0  0  0  0  0
   32.6244  -24.0604   38.7780 O   0  0  0  0  0  0  0  0  0  0  0  0
   34.9755  -23.2696   38.8422 C   0  0  0  0  0  0  0  0  0  0  0  0
   35.1804  -22.3051   37.8701 C   0  0  0  0  0  0  0  0  0  0  0  0
   34.3853  -21.7397   36.8787 C   0  0  0  0  0  0  0  0  0  0  0  0
   33.0805  -21.9535   36.5255 C   0  0  0  0  0  0  0  0  0  0  0  0
   32.5572  -21.2392   35.4399 C   0  0  0  0  0  0  0  0  0  0  0  0
   33.3185  -20.3537   34.7471 C   0  0  0  0  0  0  0  0  0  0  0  0
   34.6435  -20.1300   35.0973 C   0  0  0  0  0  0  0  0  0  0  0  0
   35.1634  -20.8291   36.1669 C   0  0  0  0  0  0  0  0  0  0  0  0
   36.4086  -20.8029   36.6821 N   0  0  0  0  0  0  0  0  0  0  0  0
   36.4120  -21.7109   37.7177 C   0  0  0  0  0  0  0  0  0  0  0  0
   37.4654  -22.0683   38.5285 C   0  0  0  0  0  0  0  0  0  0  0  0
   38.7434  -22.4245   34.6251 H   0  0  0  0  0  0  0  0  0  0  0  0
   33.5792  -25.5591   40.8042 H   0  0  0  0  0  0  0  0  0  0  0  0
   39.0411  -19.8174   34.2688 C   0  0  0  0  0  0  0  0  0  0  0  0
   40.3903  -19.5411   34.5848 O   0  0  0  0  0  0  0  0  0  0  0  0
   40.6430  -18.7689   33.9958 H   0  0  0  0  0  0  0  0  0  0  0  0
  2  1  1  0  0  0
  2  3  1  0  0  0
  3  4  1  0  0  0
  4  5  1  0  0  0
  5  6  1  0  0  0
  6  7  1  0  0  0
  6 35  1  0  0  0
 35 36  1  0  0  0
  4  8  1  0  0  0
  8  9  1  0  0  0
  9 10  2  0  0  0
 10 11  1  0  0  0
 11 12  2  0  0  0
 12 13  1  0  0  0
 13 14  2  0  0  0
 14 15  1  0  0  0
 15 16  2  0  0  0
 16 17  1  0  0  0
 17 18  2  0  0  0
 17 19  1  0  0  0
 19 20  1  0  0  0
 20 21  2  0  0  0
 20 22  1  0  0  0
 22 23  2  0  0  0
 23 24  1  0  0  0
 24 25  2  0  0  0
 25 26  1  0  0  0
 26 27  2  0  0  0
 27 28  1  0  0  0
 28 29  2  0  0  0
 29 30  1  0  0  0
 30 31  1  0  0  0
 31 32  2  0  0  0
  6  2  1  0  0  0
 32  8  1  0  0  0
 30  2  1  0  0  0
 14  9  1  0  0  0
 32 15  1  0  0  0
 22 16  1  0  0  0
 31 23  1  0  0  0
 29 24  1  0  0  0
  7 33  1  0  0  0
 36 37  1  0  0  0
 19 34  1  0  0  0
M  END
> <minimizedAffinity>
-2.99486

> <CNNscore>
0.3732833564

> <CNNaffinity>
4.8855786324

> <CNN_VS>
1.8237051964

> <CNNaffinity_variance>
0.5365547538

$$$$
[H]OC([H])([H])[C@@]1(O[H])C([H])([H])[C@@]2([H])O[C@]1(C([H])([H])[H])n1c3c([H])c([H])c([H])c([H])c3c3c4c(c5c6c([H])c([H])c([H])c([H])c6n2c5c31)C(=O)N([H])C4=O


 37 44  0  0  0  0  0  0  0  0999 V2000
   36.4508  -16.8579   35.1214 C   0  0  0  0  0  0  0  0  0  0  0  0
   36.8225  -18.2686   35.5430 C   0  0  0  0  0  0  0  0  0  0  0  0
   37.6685  -18.0005   36.6519 O   0  0  0  0  0  0  0  0  0  0  0  0
   38.6282  -18.9764   36.7106 C   0  0  0  0  0  0  0  0  0  0  0  0
   38.8612  -19.4856   35.3416 C   0  0  0  0  0  0  0  0  0  0  0  0
   37.6620  -18.9977   34.5630 C   0  0  0  0  0  0  0  0  0  0  0  0
   37.0351  -20.1165   34.0166 O   0  0  0  0  0  0  0  0  0  0  0  0
   38.1365  -20.0165   37.6489 N   0  0  0  0  0  0  0  0  0  0  0  0
   38.8561  -20.7050   38.5226 C   0  0  0  0  0  0  0  0  0  0  0  0
   40.2002  -20.6805   38.7954 C   0  0  0  0  0  0  0  0  0  0  0  0
   40.7179  -21.5000   39.7598 C   0  0  0  0  0  0  0  0  0  0  0  0
   39.9038  -22.3549   40.4657 C   0  0  0  0  0  0  0  0  0  0  0  0
   38.5330  -22.3916   40.1996 C   0  0  0  0  0  0  0  0  0  0  0  0
   38.0260  -21.5752   39.2407 C   0  0  0  0  0  0  0  0  0  0  0  0
   36.7402  -21.3720   38.7431 C   0  0  0  0  0  0  0  0  0  0  0  0
   35.4916  -21.9265   39.0153 C   0  0  0  0  0  0  0  0  0  0  0  0
   35.0766  -22.9364   39.9750 C   0  0  0  0  0  0  0  0  0  0  0  0
   35.7019  -23.6073   40.8317 O   0  0  0  0  0  0  0  0  0  0  0  0
   33.6618  -23.0996   39.8021 N   0  0  0  0  0  0  0  0  0  0  0  0
   33.1967  -22.2141   38.7594 C   0  0  0  0  0  0  0  0  0  0  0  0
   31.9826  -22.1829   38.4322 O   0  0  0  0  0  0  0  0  0  0  0  0
   34.3646  -21.5011   38.2946 C   0  0  0  0  0  0  0  0  0  0  0  0
   34.5265  -20.5299   37.3209 C   0  0  0  0  0  0  0  0  0  0  0  0
   33.6732  -19.9117   36.4130 C   0  0  0  0  0  0  0  0  0  0  0  0
   32.3335  -20.0597   36.1762 C   0  0  0  0  0  0  0  0  0  0  0  0
   31.7492  -19.3033   35.1518 C   0  0  0  0  0  0  0  0  0  0  0  0
   32.4860  -18.4414   34.4051 C   0  0  0  0  0  0  0  0  0  0  0  0
   33.8460  -18.2843   34.6372 C   0  0  0  0  0  0  0  0  0  0  0  0
   34.4263  -19.0250   35.6461 C   0  0  0  0  0  0  0  0  0  0  0  0
   35.7125  -19.0646   36.0471 N   0  0  0  0  0  0  0  0  0  0  0  0
   35.7660  -19.9897   37.0659 C   0  0  0  0  0  0  0  0  0  0  0  0
   36.8699  -20.4089   37.7734 C   0  0  0  0  0  0  0  0  0  0  0  0
   37.7752  -20.7543   33.7662 H   0  0  0  0  0  0  0  0  0  0  0  0
   33.0437  -23.7587   40.3437 H   0  0  0  0  0  0  0  0  0  0  0  0
   38.1616  -18.1576   33.4195 C   0  0  0  0  0  0  0  0  0  0  0  0
   38.9106  -18.9994   32.5669 O   0  0  0  0  0  0  0  0  0  0  0  0
   39.4474  -18.3764   31.9916 H   0  0  0  0  0  0  0  0  0  0  0  0
  2  1  1  0  0  0
  2  3  1  0  0  0
  3  4  1  0  0  0
  4  5  1  0  0  0
  5  6  1  0  0  0
  6  7  1  0  0  0
  6 35  1  0  0  0
 35 36  1  0  0  0
  4  8  1  0  0  0
  8  9  1  0  0  0
  9 10  2  0  0  0
 10 11  1  0  0  0
 11 12  2  0  0  0
 12 13  1  0  0  0
 13 14  2  0  0  0
 14 15  1  0  0  0
 15 16  2  0  0  0
 16 17  1  0  0  0
 17 18  2  0  0  0
 17 19  1  0  0  0
 19 20  1  0  0  0
 20 21  2  0  0  0
 20 22  1  0  0  0
 22 23  2  0  0  0
 23 24  1  0  0  0
 24 25  2  0  0  0
 25 26  1  0  0  0
 26 27  2  0  0  0
 27 28  1  0  0  0
 28 29  2  0  0  0
 29 30  1  0  0  0
 30 31  1  0  0  0
 31 32  2  0  0  0
  6  2  1  0  0  0
 32  8  1  0  0  0
 30  2  1  0  0  0
 14  9  1  0  0  0
 32 15  1  0  0  0
 22 16  1  0  0  0
 31 23  1  0  0  0
 29 24  1  0  0  0
  7 33  1  0  0  0
 36 37  1  0  0  0
 19 34  1  0  0  0
M  END
> <minimizedAffinity>
-7.60596

> <CNNscore>
0.3727936149

> <CNNaffinity>
4.7972364426

> <CNN_VS>
1.7883790731

> <CNNaffinity_variance>
0.8840727806

$$$$
[H]OC([H])([H])[C@@]1(O[H])C([H])([H])[C@@]2([H])O[C@]1(C([H])([H])[H])n1c3c([H])c([H])c([H])c([H])c3c3c4c(c5c6c([H])c([H])c([H])c([H])c6n2c5c31)C(=O)N([H])C4=O


 37 44  0  0  0  0  0  0  0  0999 V2000
   34.1984  -20.4374   36.2684 C   0  0  0  0  0  0  0  0  0  0  0  0
   34.5138  -19.0378   35.7710 C   0  0  0  0  0  0  0  0  0  0  0  0
   33.6514  -18.2633   36.5917 O   0  0  0  0  0  0  0  0  0  0  0  0
   33.2412  -17.1686   35.8774 C   0  0  0  0  0  0  0  0  0  0  0  0
   33.2492  -17.5184   34.4403 C   0  0  0  0  0  0  0  0  0  0  0  0
   34.0863  -18.7745   34.3764 C   0  0  0  0  0  0  0  0  0  0  0  0
   35.1469  -18.5261   33.5066 O   0  0  0  0  0  0  0  0  0  0  0  0
   34.1630  -16.0554   36.2167 N   0  0  0  0  0  0  0  0  0  0  0  0
   33.8454  -14.7790   36.3758 C   0  0  0  0  0  0  0  0  0  0  0  0
   32.6405  -14.1334   36.2624 C   0  0  0  0  0  0  0  0  0  0  0  0
   32.5633  -12.7853   36.4782 C   0  0  0  0  0  0  0  0  0  0  0  0
   33.6854  -12.0621   36.8100 C   0  0  0  0  0  0  0  0  0  0  0  0
   34.9197  -12.7051   36.9292 C   0  0  0  0  0  0  0  0  0  0  0  0
   34.9887  -14.0437   36.7135 C   0  0  0  0  0  0  0  0  0  0  0  0
   36.0356  -14.9629   36.7497 C   0  0  0  0  0  0  0  0  0  0  0  0
   37.4029  -14.8725   37.0006 C   0  0  0  0  0  0  0  0  0  0  0  0
   38.2429  -13.7397   37.3532 C   0  0  0  0  0  0  0  0  0  0  0  0
   38.0011  -12.5213   37.5322 O   0  0  0  0  0  0  0  0  0  0  0  0
   39.5750  -14.2537   37.4927 N   0  0  0  0  0  0  0  0  0  0  0  0
   39.5744  -15.6753   37.2346 C   0  0  0  0  0  0  0  0  0  0  0  0
   40.6376  -16.3442   37.2997 O   0  0  0  0  0  0  0  0  0  0  0  0
   38.2047  -16.0228   36.9320 C   0  0  0  0  0  0  0  0  0  0  0  0
   37.6075  -17.2307   36.6130 C   0  0  0  0  0  0  0  0  0  0  0  0
   38.0757  -18.5267   36.4237 C   0  0  0  0  0  0  0  0  0  0  0  0
   39.3334  -19.0609   36.5000 C   0  0  0  0  0  0  0  0  0  0  0  0
   39.4978  -20.4236   36.2196 C   0  0  0  0  0  0  0  0  0  0  0  0
   38.4410  -21.2047   35.8784 C   0  0  0  0  0  0  0  0  0  0  0  0
   37.1611  -20.6722   35.7979 C   0  0  0  0  0  0  0  0  0  0  0  0
   36.9929  -19.3312   36.0750 C   0  0  0  0  0  0  0  0  0  0  0  0
   35.8701  -18.5861   36.0467 N   0  0  0  0  0  0  0  0  0  0  0  0
   36.2550  -17.3041   36.3708 C   0  0  0  0  0  0  0  0  0  0  0  0
   35.4709  -16.1748   36.4380 C   0  0  0  0  0  0  0  0  0  0  0  0
   34.7750  -17.9377   32.7768 H   0  0  0  0  0  0  0  0  0  0  0  0
   40.4315  -13.6941   37.7439 H   0  0  0  0  0  0  0  0  0  0  0  0
   33.2460  -19.8615   33.7636 C   0  0  0  0  0  0  0  0  0  0  0  0
   31.9138  -19.3932   33.7120 O   0  0  0  0  0  0  0  0  0  0  0  0
   31.3544  -20.2142   33.5702 H   0  0  0  0  0  0  0  0  0  0  0  0
  2  1  1  0  0  0
  2  3  1  0  0  0
  3  4  1  0  0  0
  4  5  1  0  0  0
  5  6  1  0  0  0
  6  7  1  0  0  0
  6 35  1  0  0  0
 35 36  1  0  0  0
  4  8  1  0  0  0
  8  9  1  0  0  0
  9 10  2  0  0  0
 10 11  1  0  0  0
 11 12  2  0  0  0
 12 13  1  0  0  0
 13 14  2  0  0  0
 14 15  1  0  0  0
 15 16  2  0  0  0
 16 17  1  0  0  0
 17 18  2  0  0  0
 17 19  1  0  0  0
 19 20  1  0  0  0
 20 21  2  0  0  0
 20 22  1  0  0  0
 22 23  2  0  0  0
 23 24  1  0  0  0
 24 25  2  0  0  0
 25 26  1  0  0  0
 26 27  2  0  0  0
 27 28  1  0  0  0
 28 29  2  0  0  0
 29 30  1  0  0  0
 30 31  1  0  0  0
 31 32  2  0  0  0
  6  2  1  0  0  0
 32  8  1  0  0  0
 30  2  1  0  0  0
 14  9  1  0  0  0
 32 15  1  0  0  0
 22 16  1  0  0  0
 31 23  1  0  0  0
 29 24  1  0  0  0
  7 33  1  0  0  0
 36 37  1  0  0  0
 19 34  1  0  0  0
M  END
> <minimizedAffinity>
5.22231

> <CNNscore>
0.3458398879

> <CNNaffinity>
5.2457056046

> <CNN_VS>
1.8141742945

> <CNNaffinity_variance>
0.2256379426

$$$$
[H]C#C[C@]1(O[H])C([H])([H])C([H])([H])[C@]2([H])[C@]1(C([H])([H])[H])C([H])([H])C([H])([H])[C@]1([H])c3c([H])c([H])c(O[H])c([H])c3C([H])([H])C([H])([H])[C@]12[H]


 24 27  0  0  0  0  0  0  0  0999 V2000
   34.6498  -19.1469   33.8057 C   0  0  0  0  0  0  0  0  0  0  0  0
   33.5367  -19.1513   34.7958 C   0  0  0  0  0  0  0  0  0  0  0  0
   32.7342  -17.8959   34.7573 C   0  0  0  0  0  0  0  0  0  0  0  0
   33.5942  -16.7271   35.1297 C   0  0  0  0  0  0  0  0  0  0  0  0
   34.3735  -16.9135   36.3915 C   0  0  0  0  0  0  0  0  0  0  0  0
   35.0860  -18.2663   36.4331 C   0  0  0  0  0  0  0  0  0  0  0  0
   35.8713  -18.4111   37.6834 C   0  0  0  0  0  0  0  0  0  0  0  0
   36.3843  -17.1694   38.3082 C   0  0  0  0  0  0  0  0  0  0  0  0
   36.3290  -15.9604   37.4806 C   0  0  0  0  0  0  0  0  0  0  0  0
   37.2628  -14.9703   37.6558 C   0  0  0  0  0  0  0  0  0  0  0  0
   37.2278  -13.8049   36.8765 C   0  0  0  0  0  0  0  0  0  0  0  0
   38.1522  -12.7827   37.0229 O   0  0  0  0  0  0  0  0  0  0  0  0
   36.2351  -13.6564   35.9185 C   0  0  0  0  0  0  0  0  0  0  0  0
   35.3002  -14.6557   35.7482 C   0  0  0  0  0  0  0  0  0  0  0  0
   35.3493  -15.8131   36.5345 C   0  0  0  0  0  0  0  0  0  0  0  0
   34.0275  -19.2903   36.2379 C   0  0  0  0  0  0  0  0  0  0  0  0
   34.4499  -20.7010   36.3063 C   0  0  0  0  0  0  0  0  0  0  0  0
   33.2862  -21.4115   35.6268 C   0  0  0  0  0  0  0  0  0  0  0  0
   32.7264  -20.4068   34.6412 C   0  0  0  0  0  0  0  0  0  0  0  0
   32.9470  -20.9490   33.3544 O   0  0  0  0  0  0  0  0  0  0  0  0
   38.0590  -12.0019   37.6352 H   0  0  0  0  0  0  0  0  0  0  0  0
   33.0974  -21.9323   33.4011 H   0  0  0  0  0  0  0  0  0  0  0  0
   31.3086  -20.1888   34.7888 C   0  0  0  0  0  0  0  0  0  0  0  0
   30.1256  -20.0107   34.9156 C   0  0  0  0  0  0  0  0  0  0  0  0
  2  1  1  0  0  0
  2  3  1  0  0  0
  3  4  1  0  0  0
  4  5  1  0  0  0
  5  6  1  0  0  0
  6  7  1  0  0  0
  7  8  1  0  0  0
  8  9  1  0  0  0
  9 10  2  0  0  0
 10 11  1  0  0  0
 11 12  1  0  0  0
 11 13  2  0  0  0
 13 14  1  0  0  0
 14 15  2  0  0  0
  6 16  1  0  0  0
 16 17  1  0  0  0
 17 18  1  0  0  0
 18 19  1  0  0  0
 19 20  1  0  0  0
 19 23  1  0  0  0
 23 24  3  0  0  0
 16  2  1  0  0  0
 19  2  1  0  0  0
 15  5  1  0  0  0
 15  9  1  0  0  0
 12 21  1  0  0  0
 20 22  1  0  0  0
M  END
> <minimizedAffinity>
-6.50572

> <CNNscore>
0.6164713502

> <CNNaffinity>
4.9855527878

> <CNN_VS>
3.0734505653

> <CNNaffinity_variance>
0.1935163885

$$$$
[H]C#C[C@]1(O[H])C([H])([H])C([H])([H])[C@]2([H])[C@]1(C([H])([H])[H])C([H])([H])C([H])([H])[C@]1([H])c3c([H])c([H])c(O[H])c([H])c3C([H])([H])C([H])([H])[C@]12[H]


 24 27  0  0  0  0  0  0  0  0999 V2000
   34.5346  -17.0403   36.0960 C   0  0  0  0  0  0  0  0  0  0  0  0
   35.3889  -18.0971   35.4855 C   0  0  0  0  0  0  0  0  0  0  0  0
   34.8695  -18.5592   34.1671 C   0  0  0  0  0  0  0  0  0  0  0  0
   33.5206  -19.1878   34.3402 C   0  0  0  0  0  0  0  0  0  0  0  0
   33.4573  -20.2229   35.4167 C   0  0  0  0  0  0  0  0  0  0  0  0
   34.1067  -19.7425   36.7155 C   0  0  0  0  0  0  0  0  0  0  0  0
   34.0050  -20.7795   37.7715 C   0  0  0  0  0  0  0  0  0  0  0  0
   32.8531  -21.7087   37.6991 C   0  0  0  0  0  0  0  0  0  0  0  0
   31.7744  -21.3285   36.7818 C   0  0  0  0  0  0  0  0  0  0  0  0
   30.4832  -21.7056   37.0532 C   0  0  0  0  0  0  0  0  0  0  0  0
   29.4363  -21.3544   36.1888 C   0  0  0  0  0  0  0  0  0  0  0  0
   28.1198  -21.7158   36.4277 O   0  0  0  0  0  0  0  0  0  0  0  0
   29.7149  -20.6170   35.0470 C   0  0  0  0  0  0  0  0  0  0  0  0
   31.0149  -20.2417   34.7808 C   0  0  0  0  0  0  0  0  0  0  0  0
   32.0486  -20.6004   35.6543 C   0  0  0  0  0  0  0  0  0  0  0  0
   35.4938  -19.3500   36.3566 C   0  0  0  0  0  0  0  0  0  0  0  0
   36.3646  -18.9096   37.4616 C   0  0  0  0  0  0  0  0  0  0  0  0
   37.4722  -18.1757   36.7164 C   0  0  0  0  0  0  0  0  0  0  0  0
   36.8194  -17.6393   35.4593 C   0  0  0  0  0  0  0  0  0  0  0  0
   36.8603  -16.2300   35.5622 O   0  0  0  0  0  0  0  0  0  0  0  0
   27.6836  -22.5541   36.1110 H   0  0  0  0  0  0  0  0  0  0  0  0
   37.5518  -15.9386   36.2168 H   0  0  0  0  0  0  0  0  0  0  0  0
   37.5122  -18.0118   34.2508 C   0  0  0  0  0  0  0  0  0  0  0  0
   38.0939  -18.3251   33.2453 C   0  0  0  0  0  0  0  0  0  0  0  0
  2  1  1  0  0  0
  2  3  1  0  0  0
  3  4  1  0  0  0
  4  5  1  0  0  0
  5  6  1  0  0  0
  6  7  1  0  0  0
  7  8  1  0  0  0
  8  9  1  0  0  0
  9 10  2  0  0  0
 10 11  1  0  0  0
 11 12  1  0  0  0
 11 13  2  0  0  0
 13 14  1  0  0  0
 14 15  2  0  0  0
  6 16  1  0  0  0
 16 17  1  0  0  0
 17 18  1  0  0  0
 18 19  1  0  0  0
 19 20  1  0  0  0
 19 23  1  0  0  0
 23 24  3  0  0  0
 16  2  1  0  0  0
 19  2  1  0  0  0
 15  5  1  0  0  0
 15  9  1  0  0  0
 12 21  1  0  0  0
 20 22  1  0  0  0
M  END
> <minimizedAffinity>
-6.31244

> <CNNscore>
0.6106956005

> <CNNaffinity>
4.7071962357

> <CNN_VS>
2.8746640682

> <CNNaffinity_variance>
0.1912659109

$$$$
[H]C#C[C@]1(O[H])C([H])([H])C([H])([H])[C@]2([H])[C@]1(C([H])([H])[H])C([H])([H])C([H])([H])[C@]1([H])c3c([H])c([H])c(O[H])c([H])c3C([H])([H])C([H])([H])[C@]12[H]


 24 27  0  0  0  0  0  0  0  0999 V2000
   38.7657  -20.3074   34.0743 C   0  0  0  0  0  0  0  0  0  0  0  0
   39.9364  -21.1939   34.3250 C   0  0  0  0  0  0  0  0  0  0  0  0
   39.5598  -22.6352   34.3756 C   0  0  0  0  0  0  0  0  0  0  0  0
   38.6228  -22.8796   35.5187 C   0  0  0  0  0  0  0  0  0  0  0  0
   39.0893  -22.3255   36.8263 C   0  0  0  0  0  0  0  0  0  0  0  0
   39.5738  -20.8804   36.6987 C   0  0  0  0  0  0  0  0  0  0  0  0
   40.0049  -20.3499   38.0154 C   0  0  0  0  0  0  0  0  0  0  0  0
   39.3537  -20.9168   39.2196 C   0  0  0  0  0  0  0  0  0  0  0  0
   38.1471  -21.7158   38.9847 C   0  0  0  0  0  0  0  0  0  0  0  0
   37.1632  -21.7631   39.9402 C   0  0  0  0  0  0  0  0  0  0  0  0
   36.0017  -22.5221   39.7371 C   0  0  0  0  0  0  0  0  0  0  0  0
   34.9859  -22.5956   40.6771 O   0  0  0  0  0  0  0  0  0  0  0  0
   35.8506  -23.2318   38.5545 C   0  0  0  0  0  0  0  0  0  0  0  0
   36.8435  -23.1795   37.5989 C   0  0  0  0  0  0  0  0  0  0  0  0
   37.9970  -22.4167   37.8173 C   0  0  0  0  0  0  0  0  0  0  0  0
   40.6308  -20.8958   35.6549 C   0  0  0  0  0  0  0  0  0  0  0  0
   41.3168  -19.6185   35.3878 C   0  0  0  0  0  0  0  0  0  0  0  0
   41.9464  -19.8781   34.0252 C   0  0  0  0  0  0  0  0  0  0  0  0
   41.0310  -20.8760   33.3465 C   0  0  0  0  0  0  0  0  0  0  0  0
   40.4786  -20.2102   32.2285 O   0  0  0  0  0  0  0  0  0  0  0  0
   34.9227  -23.2690   41.4091 H   0  0  0  0  0  0  0  0  0  0  0  0
   41.0306  -19.4219   31.9724 H   0  0  0  0  0  0  0  0  0  0  0  0
   41.7188  -22.0479   32.8641 C   0  0  0  0  0  0  0  0  0  0  0  0
   42.2974  -23.0234   32.4625 C   0  0  0  0  0  0  0  0  0  0  0  0
  2  1  1  0  0  0
  2  3  1  0  0  0
  3  4  1  0  0  0
  4  5  1  0  0  0
  5  6  1  0  0  0
  6  7  1  0  0  0
  7  8  1  0  0  0
  8  9  1  0  0  0
  9 10  2  0  0  0
 10 11  1  0  0  0
 11 12  1  0  0  0
 11 13  2  0  0  0
 13 14  1  0  0  0
 14 15  2  0  0  0
  6 16  1  0  0  0
 16 17  1  0  0  0
 17 18  1  0  0  0
 18 19  1  0  0  0
 19 20  1  0  0  0
 19 23  1  0  0  0
 23 24  3  0  0  0
 16  2  1  0  0  0
 19  2  1  0  0  0
 15  5  1  0  0  0
 15  9  1  0  0  0
 12 21  1  0  0  0
 20 22  1  0  0  0
M  END
> <minimizedAffinity>
-4.07012

> <CNNscore>
0.5754742622

> <CNNaffinity>
4.3090453148

> <CNN_VS>
2.4797446728

> <CNNaffinity_variance>
0.0430687740

$$$$
[H]C#C[C@]1(O[H])C([H])([H])C([H])([H])[C@]2([H])[C@]1(C([H])([H])[H])C([H])([H])C([H])([H])[C@]1([H])c3c([H])c([H])c(O[H])c([H])c3C([H])([H])C([H])([H])[C@]12[H]


 24 27  0  0  0  0  0  0  0  0999 V2000
   32.2227  -21.9561   34.0718 C   0  0  0  0  0  0  0  0  0  0  0  0
   32.5854  -20.9708   35.1287 C   0  0  0  0  0  0  0  0  0  0  0  0
   33.1962  -21.6168   36.3251 C   0  0  0  0  0  0  0  0  0  0  0  0
   32.2091  -22.5438   36.9661 C   0  0  0  0  0  0  0  0  0  0  0  0
   30.8680  -21.9347   37.2207 C   0  0  0  0  0  0  0  0  0  0  0  0
   30.3356  -21.1847   35.9986 C   0  0  0  0  0  0  0  0  0  0  0  0
   28.9936  -20.6146   36.2725 C   0  0  0  0  0  0  0  0  0  0  0  0
   28.1469  -21.3216   37.2618 C   0  0  0  0  0  0  0  0  0  0  0  0
   28.5870  -22.6671   37.6430 C   0  0  0  0  0  0  0  0  0  0  0  0
   27.6602  -23.6084   38.0150 C   0  0  0  0  0  0  0  0  0  0  0  0
   28.0589  -24.9009   38.3849 C   0  0  0  0  0  0  0  0  0  0  0  0
   27.1543  -25.8791   38.7665 O   0  0  0  0  0  0  0  0  0  0  0  0
   29.4076  -25.2266   38.3731 C   0  0  0  0  0  0  0  0  0  0  0  0
   30.3331  -24.2755   37.9982 C   0  0  0  0  0  0  0  0  0  0  0  0
   29.9183  -22.9896   37.6315 C   0  0  0  0  0  0  0  0  0  0  0  0
   31.3784  -20.1869   35.6467 C   0  0  0  0  0  0  0  0  0  0  0  0
   31.0736  -19.2765   34.5279 C   0  0  0  0  0  0  0  0  0  0  0  0
   32.4570  -18.7559   34.1597 C   0  0  0  0  0  0  0  0  0  0  0  0
   33.4142  -19.8695   34.5314 C   0  0  0  0  0  0  0  0  0  0  0  0
   33.9865  -20.3206   33.3201 O   0  0  0  0  0  0  0  0  0  0  0  0
   26.8417  -26.0462   39.6980 H   0  0  0  0  0  0  0  0  0  0  0  0
   33.8935  -19.6358   32.6031 H   0  0  0  0  0  0  0  0  0  0  0  0
   34.4886  -19.4379   35.3909 C   0  0  0  0  0  0  0  0  0  0  0  0
   35.3831  -19.0808   36.1119 C   0  0  0  0  0  0  0  0  0  0  0  0
  2  1  1  0  0  0
  2  3  1  0  0  0
  3  4  1  0  0  0
  4  5  1  0  0  0
  5  6  1  0  0  0
  6  7  1  0  0  0
  7  8  1  0  0  0
  8  9  1  0  0  0
  9 10  2  0  0  0
 10 11  1  0  0  0
 11 12  1  0  0  0
 11 13  2  0  0  0
 13 14  1  0  0  0
 14 15  2  0  0  0
  6 16  1  0  0  0
 16 17  1  0  0  0
 17 18  1  0  0  0
 18 19  1  0  0  0
 19 20  1  0  0  0
 19 23  1  0  0  0
 23 24  3  0  0  0
 16  2  1  0  0  0
 19  2  1  0  0  0
 15  5  1  0  0  0
 15  9  1  0  0  0
 12 21  1  0  0  0
 20 22  1  0  0  0
M  END
> <minimizedAffinity>
-5.37431

> <CNNscore>
0.5682846308

> <CNNaffinity>
4.4548430443

> <CNN_VS>
2.5316188335

> <CNNaffinity_variance>
0.1881103069

$$$$
[H]C#C[C@]1(O[H])C([H])([H])C([H])([H])[C@]2([H])[C@]1(C([H])([H])[H])C([H])([H])C([H])([H])[C@]1([H])c3c([H])c([H])c(O[H])c([H])c3C([H])([H])C([H])([H])[C@]12[H]


 24 27  0  0  0  0  0  0  0  0999 V2000
   35.4933  -20.1309   39.7937 C   0  0  0  0  0  0  0  0  0  0  0  0
   35.7425  -21.5282   39.3411 C   0  0  0  0  0  0  0  0  0  0  0  0
   36.4200  -22.3524   40.3819 C   0  0  0  0  0  0  0  0  0  0  0  0
   37.7728  -21.7842   40.6842 C   0  0  0  0  0  0  0  0  0  0  0  0
   38.6124  -21.5172   39.4766 C   0  0  0  0  0  0  0  0  0  0  0  0
   37.8367  -20.7700   38.3906 C   0  0  0  0  0  0  0  0  0  0  0  0
   38.7023  -20.4963   37.2173 C   0  0  0  0  0  0  0  0  0  0  0  0
   40.1552  -20.3485   37.4677 C   0  0  0  0  0  0  0  0  0  0  0  0
   40.5549  -20.1848   38.8688 C   0  0  0  0  0  0  0  0  0  0  0  0
   41.6794  -19.4614   39.1776 C   0  0  0  0  0  0  0  0  0  0  0  0
   42.0809  -19.2935   40.5107 C   0  0  0  0  0  0  0  0  0  0  0  0
   43.2096  -18.5706   40.8634 O   0  0  0  0  0  0  0  0  0  0  0  0
   41.3289  -19.8678   41.5254 C   0  0  0  0  0  0  0  0  0  0  0  0
   40.2001  -20.5934   41.2074 C   0  0  0  0  0  0  0  0  0  0  0  0
   39.8129  -20.7514   39.8713 C   0  0  0  0  0  0  0  0  0  0  0  0
   36.6379  -21.5987   38.1029 C   0  0  0  0  0  0  0  0  0  0  0  0
   35.7480  -21.1254   37.0270 C   0  0  0  0  0  0  0  0  0  0  0  0
   34.4661  -21.8957   37.3169 C   0  0  0  0  0  0  0  0  0  0  0  0
   34.4684  -22.1246   38.8142 C   0  0  0  0  0  0  0  0  0  0  0  0
   33.3675  -21.4013   39.3273 O   0  0  0  0  0  0  0  0  0  0  0  0
   44.1286  -18.9438   40.9606 H   0  0  0  0  0  0  0  0  0  0  0  0
   32.7036  -21.2044   38.6117 H   0  0  0  0  0  0  0  0  0  0  0  0
   34.2949  -23.5080   39.1822 C   0  0  0  0  0  0  0  0  0  0  0  0
   34.1469  -24.6609   39.4929 C   0  0  0  0  0  0  0  0  0  0  0  0
  2  1  1  0  0  0
  2  3  1  0  0  0
  3  4  1  0  0  0
  4  5  1  0  0  0
  5  6  1  0  0  0
  6  7  1  0  0  0
  7  8  1  0  0  0
  8  9  1  0  0  0
  9 10  2  0  0  0
 10 11  1  0  0  0
 11 12  1  0  0  0
 11 13  2  0  0  0
 13 14  1  0  0  0
 14 15  2  0  0  0
  6 16  1  0  0  0
 16 17  1  0  0  0
 17 18  1  0  0  0
 18 19  1  0  0  0
 19 20  1  0  0  0
 19 23  1  0  0  0
 23 24  3  0  0  0
 16  2  1  0  0  0
 19  2  1  0  0  0
 15  5  1  0  0  0
 15  9  1  0  0  0
 12 21  1  0  0  0
 20 22  1  0  0  0
M  END
> <minimizedAffinity>
-4.27963

> <CNNscore>
0.5629302263

> <CNNaffinity>
4.3212342262

> <CNN_VS>
2.4325532913

> <CNNaffinity_variance>
0.0225845557

$$$$
[H]C#C[C@]1(O[H])C([H])([H])C([H])([H])[C@]2([H])[C@]1(C([H])([H])[H])C([H])([H])C([H])([H])[C@]1([H])c3c([H])c([H])c(O[H])c([H])c3C([H])([H])C([H])([H])[C@]12[H]


 24 27  0  0  0  0  0  0  0  0999 V2000
   35.4618  -23.9987   37.0116 C   0  0  0  0  0  0  0  0  0  0  0  0
   35.3161  -23.5908   38.4369 C   0  0  0  0  0  0  0  0  0  0  0  0
   33.9142  -23.2225   38.7843 C   0  0  0  0  0  0  0  0  0  0  0  0
   33.4842  -22.0318   37.9831 C   0  0  0  0  0  0  0  0  0  0  0  0
   34.4426  -20.8854   38.0215 C   0  0  0  0  0  0  0  0  0  0  0  0
   35.8843  -21.3322   37.7734 C   0  0  0  0  0  0  0  0  0  0  0  0
   36.8073  -20.1709   37.7910 C   0  0  0  0  0  0  0  0  0  0  0  0
   36.2511  -18.8580   37.3880 C   0  0  0  0  0  0  0  0  0  0  0  0
   34.9427  -18.8871   36.7272 C   0  0  0  0  0  0  0  0  0  0  0  0
   34.6212  -17.9209   35.8073 C   0  0  0  0  0  0  0  0  0  0  0  0
   33.3749  -17.9286   35.1645 C   0  0  0  0  0  0  0  0  0  0  0  0
   33.0126  -16.9712   34.2301 O   0  0  0  0  0  0  0  0  0  0  0  0
   32.4597  -18.9270   35.4659 C   0  0  0  0  0  0  0  0  0  0  0  0
   32.7899  -19.8946   36.3915 C   0  0  0  0  0  0  0  0  0  0  0  0
   34.0387  -19.8725   37.0242 C   0  0  0  0  0  0  0  0  0  0  0  0
   36.1696  -22.3728   38.7944 C   0  0  0  0  0  0  0  0  0  0  0  0
   37.5366  -22.9244   38.8141 C   0  0  0  0  0  0  0  0  0  0  0  0
   37.3447  -24.2138   39.6023 C   0  0  0  0  0  0  0  0  0  0  0  0
   35.9174  -24.6402   39.3279 C   0  0  0  0  0  0  0  0  0  0  0  0
   35.9979  -25.8619   38.6214 O   0  0  0  0  0  0  0  0  0  0  0  0
   32.5531  -16.1102   34.4325 H   0  0  0  0  0  0  0  0  0  0  0  0
   36.8850  -26.2945   38.7539 H   0  0  0  0  0  0  0  0  0  0  0  0
   35.1497  -24.8752   40.5257 C   0  0  0  0  0  0  0  0  0  0  0  0
   34.5107  -25.0765   41.5250 C   0  0  0  0  0  0  0  0  0  0  0  0
  2  1  1  0  0  0
  2  3  1  0  0  0
  3  4  1  0  0  0
  4  5  1  0  0  0
  5  6  1  0  0  0
  6  7  1  0  0  0
  7  8  1  0  0  0
  8  9  1  0  0  0
  9 10  2  0  0  0
 10 11  1  0  0  0
 11 12  1  0  0  0
 11 13  2  0  0  0
 13 14  1  0  0  0
 14 15  2  0  0  0
  6 16  1  0  0  0
 16 17  1  0  0  0
 17 18  1  0  0  0
 18 19  1  0  0  0
 19 20  1  0  0  0
 19 23  1  0  0  0
 23 24  3  0  0  0
 16  2  1  0  0  0
 19  2  1  0  0  0
 15  5  1  0  0  0
 15  9  1  0  0  0
 12 21  1  0  0  0
 20 22  1  0  0  0
M  END
> <minimizedAffinity>
-3.92943

> <CNNscore>
0.5476210117

> <CNNaffinity>
4.1479301453

> <CNN_VS>
2.2714936733

> <CNNaffinity_variance>
0.0173473265

$$$$
[H]C#C[C@]1(O[H])C([H])([H])C([H])([H])[C@]2([H])[C@]1(C([H])([H])[H])C([H])([H])C([H])([H])[C@]1([H])c3c([H])c([H])c(O[H])c([H])c3C([H])([H])C([H])([H])[C@]12[H]


 24 27  0  0  0  0  0  0  0  0999 V2000
   30.3799  -22.5220   35.8634 C   0  0  0  0  0  0  0  0  0  0  0  0
   30.1818  -21.7326   37.1111 C   0  0  0  0  0  0  0  0  0  0  0  0
   30.9962  -20.4844   37.1316 C   0  0  0  0  0  0  0  0  0  0  0  0
   32.4550  -20.8245   37.1025 C   0  0  0  0  0  0  0  0  0  0  0  0
   32.8707  -21.8399   38.1176 C   0  0  0  0  0  0  0  0  0  0  0  0
   31.9356  -23.0501   38.1371 C   0  0  0  0  0  0  0  0  0  0  0  0
   32.3883  -24.0510   39.1342 C   0  0  0  0  0  0  0  0  0  0  0  0
   33.8391  -24.1026   39.4309 C   0  0  0  0  0  0  0  0  0  0  0  0
   34.7136  -23.3809   38.5015 C   0  0  0  0  0  0  0  0  0  0  0  0
   35.9949  -23.8232   38.2872 C   0  0  0  0  0  0  0  0  0  0  0  0
   36.8489  -23.1473   37.4039 C   0  0  0  0  0  0  0  0  0  0  0  0
   38.1488  -23.5620   37.1605 O   0  0  0  0  0  0  0  0  0  0  0  0
   36.3881  -22.0186   36.7415 C   0  0  0  0  0  0  0  0  0  0  0  0
   35.0993  -21.5801   36.9619 C   0  0  0  0  0  0  0  0  0  0  0  0
   34.2594  -22.2665   37.8470 C   0  0  0  0  0  0  0  0  0  0  0  0
   30.5724  -22.5079   38.3706 C   0  0  0  0  0  0  0  0  0  0  0  0
   29.4819  -23.4912   38.5021 C   0  0  0  0  0  0  0  0  0  0  0  0
   28.2494  -22.6286   38.2620 C   0  0  0  0  0  0  0  0  0  0  0  0
   28.7139  -21.5157   37.3455 C   0  0  0  0  0  0  0  0  0  0  0  0
   28.0166  -21.6882   36.1280 O   0  0  0  0  0  0  0  0  0  0  0  0
   38.9542  -23.2695   37.6695 H   0  0  0  0  0  0  0  0  0  0  0  0
   27.2018  -22.2459   36.2578 H   0  0  0  0  0  0  0  0  0  0  0  0
   28.4076  -20.1979   37.8442 C   0  0  0  0  0  0  0  0  0  0  0  0
   28.1536  -19.0998   38.2651 C   0  0  0  0  0  0  0  0  0  0  0  0
  2  1  1  0  0  0
  2  3  1  0  0  0
  3  4  1  0  0  0
  4  5  1  0  0  0
  5  6  1  0  0  0
  6  7  1  0  0  0
  7  8  1  0  0  0
  8  9  1  0  0  0
  9 10  2  0  0  0
 10 11  1  0  0  0
 11 12  1  0  0  0
 11 13  2  0  0  0
 13 14  1  0  0  0
 14 15  2  0  0  0
  6 16  1  0  0  0
 16 17  1  0  0  0
 17 18  1  0  0  0
 18 19  1  0  0  0
 19 20  1  0  0  0
 19 23  1  0  0  0
 23 24  3  0  0  0
 16  2  1  0  0  0
 19  2  1  0  0  0
 15  5  1  0  0  0
 15  9  1  0  0  0
 12 21  1  0  0  0
 20 22  1  0  0  0
M  END
> <minimizedAffinity>
3.85819

> <CNNscore>
0.5442147851

> <CNNaffinity>
4.4024896622

> <CNN_VS>
2.3959000111

> <CNNaffinity_variance>
0.6539506912

$$$$
[H]C#C[C@]1(O[H])C([H])([H])C([H])([H])[C@]2([H])[C@]1(C([H])([H])[H])C([H])([H])C([H])([H])[C@]1([H])c3c([H])c([H])c(O[H])c([H])c3C([H])([H])C([H])([H])[C@]12[H]


 24 27  0  0  0  0  0  0  0  0999 V2000
   35.2962  -20.6334   40.1171 C   0  0  0  0  0  0  0  0  0  0  0  0
   36.3126  -21.1059   39.1357 C   0  0  0  0  0  0  0  0  0  0  0  0
   36.7243  -20.0372   38.1818 C   0  0  0  0  0  0  0  0  0  0  0  0
   35.5487  -19.6037   37.3605 C   0  0  0  0  0  0  0  0  0  0  0  0
   34.7921  -20.7267   36.7277 C   0  0  0  0  0  0  0  0  0  0  0  0
   34.4942  -21.8512   37.7207 C   0  0  0  0  0  0  0  0  0  0  0  0
   33.7205  -22.9378   37.0714 C   0  0  0  0  0  0  0  0  0  0  0  0
   32.8435  -22.5603   35.9383 C   0  0  0  0  0  0  0  0  0  0  0  0
   32.5933  -21.1260   35.7662 C   0  0  0  0  0  0  0  0  0  0  0  0
   31.4082  -20.7006   35.2208 C   0  0  0  0  0  0  0  0  0  0  0  0
   31.1486  -19.3337   35.0456 C   0  0  0  0  0  0  0  0  0  0  0  0
   29.9647  -18.8642   34.4988 O   0  0  0  0  0  0  0  0  0  0  0  0
   32.1048  -18.4047   35.4298 C   0  0  0  0  0  0  0  0  0  0  0  0
   33.2935  -18.8396   35.9772 C   0  0  0  0  0  0  0  0  0  0  0  0
   33.5368  -20.2081   36.1454 C   0  0  0  0  0  0  0  0  0  0  0  0
   35.8093  -22.2651   38.2739 C   0  0  0  0  0  0  0  0  0  0  0  0
   35.8043  -23.3977   39.2177 C   0  0  0  0  0  0  0  0  0  0  0  0
   37.1552  -23.2416   39.9042 C   0  0  0  0  0  0  0  0  0  0  0  0
   37.4542  -21.7573   39.8631 C   0  0  0  0  0  0  0  0  0  0  0  0
   37.4631  -21.3176   41.2066 O   0  0  0  0  0  0  0  0  0  0  0  0
   29.8000  -18.7008   33.5295 H   0  0  0  0  0  0  0  0  0  0  0  0
   37.5975  -22.0806   41.8322 H   0  0  0  0  0  0  0  0  0  0  0  0
   38.7414  -21.4482   39.2913 C   0  0  0  0  0  0  0  0  0  0  0  0
   39.8150  -21.1854   38.8161 C   0  0  0  0  0  0  0  0  0  0  0  0
  2  1  1  0  0  0
  2  3  1  0  0  0
  3  4  1  0  0  0
  4  5  1  0  0  0
  5  6  1  0  0  0
  6  7  1  0  0  0
  7  8  1  0  0  0
  8  9  1  0  0  0
  9 10  2  0  0  0
 10 11  1  0  0  0
 11 12  1  0  0  0
 11 13  2  0  0  0
 13 14  1  0  0  0
 14 15  2  0  0  0
  6 16  1  0  0  0
 16 17  1  0  0  0
 17 18  1  0  0  0
 18 19  1  0  0  0
 19 20  1  0  0  0
 19 23  1  0  0  0
 23 24  3  0  0  0
 16  2  1  0  0  0
 19  2  1  0  0  0
 15  5  1  0  0  0
 15  9  1  0  0  0
 12 21  1  0  0  0
 20 22  1  0  0  0
M  END
> <minimizedAffinity>
-4.40717

> <CNNscore>
0.5329312682

> <CNNaffinity>
4.2054948807

> <CNN_VS>
2.2412397861

> <CNNaffinity_variance>
0.0719750673

$$$$
[H]C#C[C@]1(O[H])C([H])([H])C([H])([H])[C@]2([H])[C@]1(C([H])([H])[H])C([H])([H])C([H])([H])[C@]1([H])c3c([H])c([H])c(O[H])c([H])c3C([H])([H])C([H])([H])[C@]12[H]


 24 27  0  0  0  0  0  0  0  0999 V2000
   34.1096  -19.8874   33.7846 C   0  0  0  0  0  0  0  0  0  0  0  0
   34.0907  -19.3198   35.1618 C   0  0  0  0  0  0  0  0  0  0  0  0
   34.3519  -20.3500   36.2068 C   0  0  0  0  0  0  0  0  0  0  0  0
   33.2689  -21.3849   36.1874 C   0  0  0  0  0  0  0  0  0  0  0  0
   31.8828  -20.8261   36.2159 C   0  0  0  0  0  0  0  0  0  0  0  0
   31.6984  -19.6933   35.2049 C   0  0  0  0  0  0  0  0  0  0  0  0
   30.3078  -19.1776   35.2378 C   0  0  0  0  0  0  0  0  0  0  0  0
   29.2438  -20.1253   35.6443 C   0  0  0  0  0  0  0  0  0  0  0  0
   29.6205  -21.5418   35.6791 C   0  0  0  0  0  0  0  0  0  0  0  0
   28.6756  -22.5055   35.4313 C   0  0  0  0  0  0  0  0  0  0  0  0
   29.0134  -23.8662   35.4610 C   0  0  0  0  0  0  0  0  0  0  0  0
   28.0886  -24.8690   35.2164 O   0  0  0  0  0  0  0  0  0  0  0  0
   30.3200  -24.2369   35.7449 C   0  0  0  0  0  0  0  0  0  0  0  0
   31.2642  -23.2629   35.9929 C   0  0  0  0  0  0  0  0  0  0  0  0
   30.9103  -21.9087   35.9592 C   0  0  0  0  0  0  0  0  0  0  0  0
   32.7452  -18.6885   35.5236 C   0  0  0  0  0  0  0  0  0  0  0  0
   32.7389  -17.4492   34.7252 C   0  0  0  0  0  0  0  0  0  0  0  0
   34.1402  -16.9064   34.9750 C   0  0  0  0  0  0  0  0  0  0  0  0
   35.0007  -18.1265   35.2304 C   0  0  0  0  0  0  0  0  0  0  0  0
   35.9292  -18.1861   34.1661 O   0  0  0  0  0  0  0  0  0  0  0  0
   27.5230  -25.3149   35.9054 H   0  0  0  0  0  0  0  0  0  0  0  0
   36.0175  -17.3013   33.7178 H   0  0  0  0  0  0  0  0  0  0  0  0
   35.7478  -18.0527   36.4614 C   0  0  0  0  0  0  0  0  0  0  0  0
   36.3741  -17.9872   37.4866 C   0  0  0  0  0  0  0  0  0  0  0  0
  2  1  1  0  0  0
  2  3  1  0  0  0
  3  4  1  0  0  0
  4  5  1  0  0  0
  5  6  1  0  0  0
  6  7  1  0  0  0
  7  8  1  0  0  0
  8  9  1  0  0  0
  9 10  2  0  0  0
 10 11  1  0  0  0
 11 12  1  0  0  0
 11 13  2  0  0  0
 13 14  1  0  0  0
 14 15  2  0  0  0
  6 16  1  0  0  0
 16 17  1  0  0  0
 17 18  1  0  0  0
 18 19  1  0  0  0
 19 20  1  0  0  0
 19 23  1  0  0  0
 23 24  3  0  0  0
 16  2  1  0  0  0
 19  2  1  0  0  0
 15  5  1  0  0  0
 15  9  1  0  0  0
 12 21  1  0  0  0
 20 22  1  0  0  0
M  END
> <minimizedAffinity>
-5.65787

> <CNNscore>
0.5266698599

> <CNNaffinity>
4.6103129387

> <CNN_VS>
2.4281129837

> <CNNaffinity_variance>
0.2607918382

$$$$
[H]O[C@@]1([H])C([H])([H])C([H])([H])[C@]2([H])[C@]1(C([H])([H])[H])C([H])([H])C([H])([H])[C@]1([H])[C@]3(C([H])([H])[H])C(=C([H])C([H])([H])[C@@]21[H])C([H])([H])[C@]([H])(O[H])C([H])([H])C3([H])[H]


 23 26  0  0  0  0  0  0  0  0999 V2000
   29.4219  -24.1095   35.4249 C   0  0  0  0  0  0  0  0  0  0  0  0
   28.8959  -23.1374   36.4318 C   0  0  0  0  0  0  0  0  0  0  0  0
   28.4867  -21.8700   35.7781 C   0  0  0  0  0  0  0  0  0  0  0  0
   29.5704  -20.9811   35.3322 C   0  0  0  0  0  0  0  0  0  0  0  0
   30.8335  -21.0127   36.0896 C   0  0  0  0  0  0  0  0  0  0  0  0
   31.1661  -22.3583   36.7044 C   0  0  0  0  0  0  0  0  0  0  0  0
   32.3332  -22.2879   37.6191 C   0  0  0  0  0  0  0  0  0  0  0  0
   33.2393  -21.1643   37.3251 C   0  0  0  0  0  0  0  0  0  0  0  0
   33.1398  -20.3615   36.2719 C   0  0  0  0  0  0  0  0  0  0  0  0
   34.1557  -19.2821   36.1535 C   0  0  0  0  0  0  0  0  0  0  0  0
   34.0092  -18.5094   34.8664 C   0  0  0  0  0  0  0  0  0  0  0  0
   34.6834  -17.2952   35.0319 O   0  0  0  0  0  0  0  0  0  0  0  0
   32.5149  -18.1802   34.7469 C   0  0  0  0  0  0  0  0  0  0  0  0
   31.7962  -19.4626   34.3690 C   0  0  0  0  0  0  0  0  0  0  0  0
   32.0519  -20.5864   35.3079 C   0  0  0  0  0  0  0  0  0  0  0  0
   32.4637  -21.7982   34.4592 C   0  0  0  0  0  0  0  0  0  0  0  0
   29.9525  -22.7581   37.4779 C   0  0  0  0  0  0  0  0  0  0  0  0
   30.0570  -23.9893   38.2757 C   0  0  0  0  0  0  0  0  0  0  0  0
   28.5784  -24.2933   38.5313 C   0  0  0  0  0  0  0  0  0  0  0  0
   27.8543  -23.7650   37.3025 C   0  0  0  0  0  0  0  0  0  0  0  0
   27.2771  -24.8657   36.6712 O   0  0  0  0  0  0  0  0  0  0  0  0
   35.6489  -17.4115   34.9225 H   0  0  0  0  0  0  0  0  0  0  0  0
   27.0544  -25.5509   37.3560 H   0  0  0  0  0  0  0  0  0  0  0  0
  2  1  1  0  0  0
  2  3  1  0  0  0
  3  4  1  0  0  0
  4  5  1  0  0  0
  5  6  1  0  0  0
  6  7  1  0  0  0
  7  8  1  0  0  0
  8  9  2  0  0  0
  9 10  1  0  0  0
 10 11  1  0  0  0
 11 12  1  0  0  0
 11 13  1  0  0  0
 13 14  1  0  0  0
 14 15  1  0  0  0
 15 16  1  0  0  0
  6 17  1  0  0  0
 17 18  1  0  0  0
 18 19  1  0  0  0
 19 20  1  0  0  0
 20 21  1  0  0  0
 17  2  1  0  0  0
 20  2  1  0  0  0
 15  5  1  0  0  0
 15  9  1  0  0  0
 12 22  1  0  0  0
 21 23  1  0  0  0
M  END
> <minimizedAffinity>
-5.01523

> <CNNscore>
0.6370842457

> <CNNaffinity>
4.3355317116

> <CNN_VS>
2.7620990276

> <CNNaffinity_variance>
0.2543526292

$$$$
[H]O[C@@]1([H])C([H])([H])C([H])([H])[C@]2([H])[C@]1(C([H])([H])[H])C([H])([H])C([H])([H])[C@]1([H])[C@]3(C([H])([H])[H])C(=C([H])C([H])([H])[C@@]21[H])C([H])([H])[C@]([H])(O[H])C([H])([H])C3([H])[H]


 23 26  0  0  0  0  0  0  0  0999 V2000
   37.7583  -17.5790   36.2811 C   0  0  0  0  0  0  0  0  0  0  0  0
   37.8909  -18.9188   35.6308 C   0  0  0  0  0  0  0  0  0  0  0  0
   37.3334  -18.8956   34.2560 C   0  0  0  0  0  0  0  0  0  0  0  0
   35.8672  -18.8697   34.1422 C   0  0  0  0  0  0  0  0  0  0  0  0
   35.0886  -19.5166   35.2123 C   0  0  0  0  0  0  0  0  0  0  0  0
   35.7399  -19.4716   36.5809 C   0  0  0  0  0  0  0  0  0  0  0  0
   35.0207  -20.3060   37.5760 C   0  0  0  0  0  0  0  0  0  0  0  0
   33.6025  -20.5225   37.2415 C   0  0  0  0  0  0  0  0  0  0  0  0
   32.9571  -19.9316   36.2426 C   0  0  0  0  0  0  0  0  0  0  0  0
   31.5231  -20.2846   36.0691 C   0  0  0  0  0  0  0  0  0  0  0  0
   30.8705  -19.4710   34.9794 C   0  0  0  0  0  0  0  0  0  0  0  0
   29.7039  -20.1435   34.6011 O   0  0  0  0  0  0  0  0  0  0  0  0
   31.8309  -19.5313   33.7838 C   0  0  0  0  0  0  0  0  0  0  0  0
   33.0153  -18.6388   34.1071 C   0  0  0  0  0  0  0  0  0  0  0  0
   33.6876  -18.9836   35.3874 C   0  0  0  0  0  0  0  0  0  0  0  0
   33.8202  -17.6821   36.1917 C   0  0  0  0  0  0  0  0  0  0  0  0
   37.1201  -20.0087   36.3873 C   0  0  0  0  0  0  0  0  0  0  0  0
   37.9346  -20.1819   37.5996 C   0  0  0  0  0  0  0  0  0  0  0  0
   39.3347  -20.3002   36.9915 C   0  0  0  0  0  0  0  0  0  0  0  0
   39.2885  -19.4404   35.7377 C   0  0  0  0  0  0  0  0  0  0  0  0
   40.1938  -18.3982   35.9310 O   0  0  0  0  0  0  0  0  0  0  0  0
   28.9808  -19.9793   35.2398 H   0  0  0  0  0  0  0  0  0  0  0  0
   40.9309  -18.7150   36.5177 H   0  0  0  0  0  0  0  0  0  0  0  0
  2  1  1  0  0  0
  2  3  1  0  0  0
  3  4  1  0  0  0
  4  5  1  0  0  0
  5  6  1  0  0  0
  6  7  1  0  0  0
  7  8  1  0  0  0
  8  9  2  0  0  0
  9 10  1  0  0  0
 10 11  1  0  0  0
 11 12  1  0  0  0
 11 13  1  0  0  0
 13 14  1  0  0  0
 14 15  1  0  0  0
 15 16  1  0  0  0
  6 17  1  0  0  0
 17 18  1  0  0  0
 18 19  1  0  0  0
 19 20  1  0  0  0
 20 21  1  0  0  0
 17  2  1  0  0  0
 20  2  1  0  0  0
 15  5  1  0  0  0
 15  9  1  0  0  0
 12 22  1  0  0  0
 21 23  1  0  0  0
M  END
> <minimizedAffinity>
-5.68063

> <CNNscore>
0.6351150274

> <CNNaffinity>
4.7493333817

> <CNN_VS>
3.0163729191

> <CNNaffinity_variance>
0.1586226970

$$$$
[H]O[C@@]1([H])C([H])([H])C([H])([H])[C@]2([H])[C@]1(C([H])([H])[H])C([H])([H])C([H])([H])[C@]1([H])[C@]3(C([H])([H])[H])C(=C([H])C([H])([H])[C@@]21[H])C([H])([H])[C@]([H])(O[H])C([H])([H])C3([H])[H]


 23 26  0  0  0  0  0  0  0  0999 V2000
   35.3964  -19.1345   34.5420 C   0  0  0  0  0  0  0  0  0  0  0  0
   34.9911  -18.6476   35.8963 C   0  0  0  0  0  0  0  0  0  0  0  0
   34.9882  -19.7600   36.8780 C   0  0  0  0  0  0  0  0  0  0  0  0
   33.8799  -20.7217   36.7777 C   0  0  0  0  0  0  0  0  0  0  0  0
   32.5914  -20.2261   36.2638 C   0  0  0  0  0  0  0  0  0  0  0  0
   32.7064  -19.0997   35.2552 C   0  0  0  0  0  0  0  0  0  0  0  0
   31.3886  -18.5025   34.9233 C   0  0  0  0  0  0  0  0  0  0  0  0
   30.2577  -19.4188   35.1504 C   0  0  0  0  0  0  0  0  0  0  0  0
   30.3705  -20.7010   35.4771 C   0  0  0  0  0  0  0  0  0  0  0  0
   29.1050  -21.4593   35.6631 C   0  0  0  0  0  0  0  0  0  0  0  0
   29.3583  -22.9238   35.9201 C   0  0  0  0  0  0  0  0  0  0  0  0
   28.1977  -23.4514   36.4951 O   0  0  0  0  0  0  0  0  0  0  0  0
   30.4539  -22.9741   36.9938 C   0  0  0  0  0  0  0  0  0  0  0  0
   31.7623  -22.5924   36.3259 C   0  0  0  0  0  0  0  0  0  0  0  0
   31.7143  -21.2789   35.6313 C   0  0  0  0  0  0  0  0  0  0  0  0
   32.2610  -21.4985   34.2132 C   0  0  0  0  0  0  0  0  0  0  0  0
   33.5706  -18.0674   35.9021 C   0  0  0  0  0  0  0  0  0  0  0  0
   33.7470  -16.8043   35.1696 C   0  0  0  0  0  0  0  0  0  0  0  0
   34.9772  -16.2301   35.8775 C   0  0  0  0  0  0  0  0  0  0  0  0
   35.7844  -17.4468   36.3034 C   0  0  0  0  0  0  0  0  0  0  0  0
   36.9923  -17.3914   35.6097 O   0  0  0  0  0  0  0  0  0  0  0  0
   27.5167  -23.6268   35.8145 H   0  0  0  0  0  0  0  0  0  0  0  0
   37.2246  -16.4398   35.4409 H   0  0  0  0  0  0  0  0  0  0  0  0
  2  1  1  0  0  0
  2  3  1  0  0  0
  3  4  1  0  0  0
  4  5  1  0  0  0
  5  6  1  0  0  0
  6  7  1  0  0  0
  7  8  1  0  0  0
  8  9  2  0  0  0
  9 10  1  0  0  0
 10 11  1  0  0  0
 11 12  1  0  0  0
 11 13  1  0  0  0
 13 14  1  0  0  0
 14 15  1  0  0  0
 15 16  1  0  0  0
  6 17  1  0  0  0
 17 18  1  0  0  0
 18 19  1  0  0  0
 19 20  1  0  0  0
 20 21  1  0  0  0
 17  2  1  0  0  0
 20  2  1  0  0  0
 15  5  1  0  0  0
 15  9  1  0  0  0
 12 22  1  0  0  0
 21 23  1  0  0  0
M  END
> <minimizedAffinity>
-6.20138

> <CNNscore>
0.6279925704

> <CNNaffinity>
4.6305170059

> <CNN_VS>
2.9079303741

> <CNNaffinity_variance>
0.2439897358

$$$$
[H]O[C@@]1([H])C([H])([H])C([H])([H])[C@]2([H])[C@]1(C([H])([H])[H])C([H])([H])C([H])([H])[C@]1([H])[C@]3(C([H])([H])[H])C(=C([H])C([H])([H])[C@@]21[H])C([H])([H])[C@]([H])(O[H])C([H])([H])C3([H])[H]


 23 26  0  0  0  0  0  0  0  0999 V2000
   29.0122  -23.0255   35.5187 C   0  0  0  0  0  0  0  0  0  0  0  0
   28.9418  -22.0060   36.6100 C   0  0  0  0  0  0  0  0  0  0  0  0
   28.7685  -20.6434   36.0490 C   0  0  0  0  0  0  0  0  0  0  0  0
   29.9508  -20.0378   35.4175 C   0  0  0  0  0  0  0  0  0  0  0  0
   31.2745  -20.4301   35.9311 C   0  0  0  0  0  0  0  0  0  0  0  0
   31.3480  -21.8465   36.4674 C   0  0  0  0  0  0  0  0  0  0  0  0
   32.6346  -22.1241   37.1537 C   0  0  0  0  0  0  0  0  0  0  0  0
   33.7359  -21.2545   36.7053 C   0  0  0  0  0  0  0  0  0  0  0  0
   33.6659  -20.3985   35.6924 C   0  0  0  0  0  0  0  0  0  0  0  0
   34.8906  -19.6089   35.3962 C   0  0  0  0  0  0  0  0  0  0  0  0
   34.7271  -18.7576   34.1618 C   0  0  0  0  0  0  0  0  0  0  0  0
   35.7121  -17.7657   34.2080 O   0  0  0  0  0  0  0  0  0  0  0  0
   33.3729  -18.0527   34.3192 C   0  0  0  0  0  0  0  0  0  0  0  0
   32.2906  -19.0879   34.0720 C   0  0  0  0  0  0  0  0  0  0  0  0
   32.4055  -20.2877   34.9422 C   0  0  0  0  0  0  0  0  0  0  0  0
   32.3328  -21.5179   34.0259 C   0  0  0  0  0  0  0  0  0  0  0  0
   30.2270  -21.9641   37.4474 C   0  0  0  0  0  0  0  0  0  0  0  0
   30.1456  -23.2216   38.2060 C   0  0  0  0  0  0  0  0  0  0  0  0
   28.7072  -23.1519   38.7258 C   0  0  0  0  0  0  0  0  0  0  0  0
   27.9419  -22.3924   37.6530 C   0  0  0  0  0  0  0  0  0  0  0  0
   26.9970  -23.2749   37.1318 O   0  0  0  0  0  0  0  0  0  0  0  0
   36.5796  -18.1183   33.9233 H   0  0  0  0  0  0  0  0  0  0  0  0
   26.7272  -23.9158   37.8420 H   0  0  0  0  0  0  0  0  0  0  0  0
  2  1  1  0  0  0
  2  3  1  0  0  0
  3  4  1  0  0  0
  4  5  1  0  0  0
  5  6  1  0  0  0
  6  7  1  0  0  0
  7  8  1  0  0  0
  8  9  2  0  0  0
  9 10  1  0  0  0
 10 11  1  0  0  0
 11 12  1  0  0  0
 11 13  1  0  0  0
 13 14  1  0  0  0
 14 15  1  0  0  0
 15 16  1  0  0  0
  6 17  1  0  0  0
 17 18  1  0  0  0
 18 19  1  0  0  0
 19 20  1  0  0  0
 20 21  1  0  0  0
 17  2  1  0  0  0
 20  2  1  0  0  0
 15  5  1  0  0  0
 15  9  1  0  0  0
 12 22  1  0  0  0
 21 23  1  0  0  0
M  END
> <minimizedAffinity>
-5.53220

> <CNNscore>
0.6041473746

> <CNNaffinity>
4.3022694588

> <CNN_VS>
2.5992047787

> <CNNaffinity_variance>
0.3476034999

$$$$
[H]O[C@@]1([H])C([H])([H])C([H])([H])[C@]2([H])[C@]1(C([H])([H])[H])C([H])([H])C([H])([H])[C@]1([H])[C@]3(C([H])([H])[H])C(=C([H])C([H])([H])[C@@]21[H])C([H])([H])[C@]([H])(O[H])C([H])([H])C3([H])[H]


 23 26  0  0  0  0  0  0  0  0999 V2000
   32.2085  -21.7481   34.3905 C   0  0  0  0  0  0  0  0  0  0  0  0
   31.5577  -21.2120   35.6252 C   0  0  0  0  0  0  0  0  0  0  0  0
   31.0838  -19.8225   35.4112 C   0  0  0  0  0  0  0  0  0  0  0  0
   32.1155  -18.7749   35.3747 C   0  0  0  0  0  0  0  0  0  0  0  0
   33.3373  -18.9930   36.1681 C   0  0  0  0  0  0  0  0  0  0  0  0
   33.7431  -20.4468   36.3134 C   0  0  0  0  0  0  0  0  0  0  0  0
   34.8534  -20.6288   37.2817 C   0  0  0  0  0  0  0  0  0  0  0  0
   35.6822  -19.4232   37.4541 C   0  0  0  0  0  0  0  0  0  0  0  0
   35.5733  -18.3147   36.7310 C   0  0  0  0  0  0  0  0  0  0  0  0
   36.5060  -17.2046   37.0611 C   0  0  0  0  0  0  0  0  0  0  0  0
   36.3644  -16.0467   36.1049 C   0  0  0  0  0  0  0  0  0  0  0  0
   36.9320  -14.9270   36.7217 O   0  0  0  0  0  0  0  0  0  0  0  0
   34.8568  -15.7815   35.9934 C   0  0  0  0  0  0  0  0  0  0  0  0
   34.2609  -16.8947   35.1511 C   0  0  0  0  0  0  0  0  0  0  0  0
   34.5564  -18.2562   35.6698 C   0  0  0  0  0  0  0  0  0  0  0  0
   35.1043  -19.0777   34.4938 C   0  0  0  0  0  0  0  0  0  0  0  0
   32.5272  -21.1557   36.8133 C   0  0  0  0  0  0  0  0  0  0  0  0
   32.6876  -22.5779   37.1521 C   0  0  0  0  0  0  0  0  0  0  0  0
   31.2264  -23.0343   37.1790 C   0  0  0  0  0  0  0  0  0  0  0  0
   30.5260  -22.1581   36.1518 C   0  0  0  0  0  0  0  0  0  0  0  0
   30.0696  -23.0060   35.1439 O   0  0  0  0  0  0  0  0  0  0  0  0
   37.9079  -14.9440   36.6513 H   0  0  0  0  0  0  0  0  0  0  0  0
   29.8670  -23.8960   35.5374 H   0  0  0  0  0  0  0  0  0  0  0  0
  2  1  1  0  0  0
  2  3  1  0  0  0
  3  4  1  0  0  0
  4  5  1  0  0  0
  5  6  1  0  0  0
  6  7  1  0  0  0
  7  8  1  0  0  0
  8  9  2  0  0  0
  9 10  1  0  0  0
 10 11  1  0  0  0
 11 12  1  0  0  0
 11 13  1  0  0  0
 13 14  1  0  0  0
 14 15  1  0  0  0
 15 16  1  0  0  0
  6 17  1  0  0  0
 17 18  1  0  0  0
 18 19  1  0  0  0
 19 20  1  0  0  0
 20 21  1  0  0  0
 17  2  1  0  0  0
 20  2  1  0  0  0
 15  5  1  0  0  0
 15  9  1  0  0  0
 12 22  1  0  0  0
 21 23  1  0  0  0
M  END
> <minimizedAffinity>
-6.52866

> <CNNscore>
0.5976774096

> <CNNaffinity>
4.6655702591

> <CNN_VS>
2.7885060310

> <CNNaffinity_variance>
0.2025907487

$$$$
[H]O[C@@]1([H])C([H])([H])C([H])([H])[C@]2([H])[C@]1(C([H])([H])[H])C([H])([H])C([H])([H])[C@]1([H])[C@]3(C([H])([H])[H])C(=C([H])C([H])([H])[C@@]21[H])C([H])([H])[C@]([H])(O[H])C([H])([H])C3([H])[H]


 23 26  0  0  0  0  0  0  0  0999 V2000
   32.1930  -19.7890   33.7438 C   0  0  0  0  0  0  0  0  0  0  0  0
   31.9365  -19.2820   35.1268 C   0  0  0  0  0  0  0  0  0  0  0  0
   32.4773  -17.9107   35.2949 C   0  0  0  0  0  0  0  0  0  0  0  0
   33.9386  -17.7903   35.4096 C   0  0  0  0  0  0  0  0  0  0  0  0
   34.6710  -18.9196   36.0082 C   0  0  0  0  0  0  0  0  0  0  0  0
   34.0427  -20.2780   35.7650 C   0  0  0  0  0  0  0  0  0  0  0  0
   34.6986  -21.3523   36.5519 C   0  0  0  0  0  0  0  0  0  0  0  0
   36.0884  -21.0379   36.9255 C   0  0  0  0  0  0  0  0  0  0  0  0
   36.7706  -19.9810   36.4999 C   0  0  0  0  0  0  0  0  0  0  0  0
   38.1663  -19.8408   36.9934 C   0  0  0  0  0  0  0  0  0  0  0  0
   38.8739  -18.6704   36.3572 C   0  0  0  0  0  0  0  0  0  0  0  0
   39.9729  -18.3606   37.1650 O   0  0  0  0  0  0  0  0  0  0  0  0
   37.8975  -17.4905   36.4563 C   0  0  0  0  0  0  0  0  0  0  0  0
   36.7991  -17.7228   35.4347 C   0  0  0  0  0  0  0  0  0  0  0  0
   36.1150  -19.0340   35.5850 C   0  0  0  0  0  0  0  0  0  0  0  0
   36.1058  -19.6990   34.2007 C   0  0  0  0  0  0  0  0  0  0  0  0
   32.6188  -20.1455   36.1961 C   0  0  0  0  0  0  0  0  0  0  0  0
   31.8070  -21.3717   36.1708 C   0  0  0  0  0  0  0  0  0  0  0  0
   30.3946  -20.7835   36.2281 C   0  0  0  0  0  0  0  0  0  0  0  0
   30.5002  -19.4469   35.5099 C   0  0  0  0  0  0  0  0  0  0  0  0
   29.6914  -19.5334   34.3779 O   0  0  0  0  0  0  0  0  0  0  0  0
   40.7152  -18.9766   36.9997 H   0  0  0  0  0  0  0  0  0  0  0  0
   28.9367  -20.1522   34.5664 H   0  0  0  0  0  0  0  0  0  0  0  0
  2  1  1  0  0  0
  2  3  1  0  0  0
  3  4  1  0  0  0
  4  5  1  0  0  0
  5  6  1  0  0  0
  6  7  1  0  0  0
  7  8  1  0  0  0
  8  9  2  0  0  0
  9 10  1  0  0  0
 10 11  1  0  0  0
 11 12  1  0  0  0
 11 13  1  0  0  0
 13 14  1  0  0  0
 14 15  1  0  0  0
 15 16  1  0  0  0
  6 17  1  0  0  0
 17 18  1  0  0  0
 18 19  1  0  0  0
 19 20  1  0  0  0
 20 21  1  0  0  0
 17  2  1  0  0  0
 20  2  1  0  0  0
 15  5  1  0  0  0
 15  9  1  0  0  0
 12 22  1  0  0  0
 21 23  1  0  0  0
M  END
> <minimizedAffinity>
-4.43372

> <CNNscore>
0.5640550256

> <CNNaffinity>
4.6823382378

> <CNN_VS>
2.6410963535

> <CNNaffinity_variance>
0.0937140435

$$$$
[H]O[C@@]1([H])C([H])([H])C([H])([H])[C@]2([H])[C@]1(C([H])([H])[H])C([H])([H])C([H])([H])[C@]1([H])[C@]3(C([H])([H])[H])C(=C([H])C([H])([H])[C@@]21[H])C([H])([H])[C@]([H])(O[H])C([H])([H])C3([H])[H]


 23 26  0  0  0  0  0  0  0  0999 V2000
   32.9972  -17.8037   36.1479 C   0  0  0  0  0  0  0  0  0  0  0  0
   33.0714  -19.2393   35.7367 C   0  0  0  0  0  0  0  0  0  0  0  0
   33.6028  -20.0774   36.8397 C   0  0  0  0  0  0  0  0  0  0  0  0
   35.0450  -19.9719   37.1085 C   0  0  0  0  0  0  0  0  0  0  0  0
   35.9282  -19.6487   35.9748 C   0  0  0  0  0  0  0  0  0  0  0  0
   35.2933  -18.7748   34.9106 C   0  0  0  0  0  0  0  0  0  0  0  0
   36.1467  -18.6463   33.7028 C   0  0  0  0  0  0  0  0  0  0  0  0
   37.5774  -18.8720   33.9712 C   0  0  0  0  0  0  0  0  0  0  0  0
   38.1099  -19.0313   35.1773 C   0  0  0  0  0  0  0  0  0  0  0  0
   39.5797  -19.2484   35.2379 C   0  0  0  0  0  0  0  0  0  0  0  0
   40.0829  -19.3035   36.6588 C   0  0  0  0  0  0  0  0  0  0  0  0
   41.3369  -19.9221   36.6316 O   0  0  0  0  0  0  0  0  0  0  0  0
   39.1309  -20.2516   37.4005 C   0  0  0  0  0  0  0  0  0  0  0  0
   37.8237  -19.5095   37.6113 C   0  0  0  0  0  0  0  0  0  0  0  0
   37.2289  -18.9841   36.3543 C   0  0  0  0  0  0  0  0  0  0  0  0
   36.9007  -17.5034   36.5953 C   0  0  0  0  0  0  0  0  0  0  0  0
   34.0136  -19.4525   34.5446 C   0  0  0  0  0  0  0  0  0  0  0  0
   33.2504  -18.8617   33.4347 C   0  0  0  0  0  0  0  0  0  0  0  0
   31.8800  -19.5095   33.6505 C   0  0  0  0  0  0  0  0  0  0  0  0
   31.7754  -19.7070   35.1550 C   0  0  0  0  0  0  0  0  0  0  0  0
   30.7186  -18.9104   35.5929 O   0  0  0  0  0  0  0  0  0  0  0  0
   42.0320  -19.2951   36.3460 H   0  0  0  0  0  0  0  0  0  0  0  0
   30.0476  -18.8341   34.8635 H   0  0  0  0  0  0  0  0  0  0  0  0
  2  1  1  0  0  0
  2  3  1  0  0  0
  3  4  1  0  0  0
  4  5  1  0  0  0
  5  6  1  0  0  0
  6  7  1  0  0  0
  7  8  1  0  0  0
  8  9  2  0  0  0
  9 10  1  0  0  0
 10 11  1  0  0  0
 11 12  1  0  0  0
 11 13  1  0  0  0
 13 14  1  0  0  0
 14 15  1  0  0  0
 15 16  1  0  0  0
  6 17  1  0  0  0
 17 18  1  0  0  0
 18 19  1  0  0  0
 19 20  1  0  0  0
 20 21  1  0  0  0
 17  2  1  0  0  0
 20  2  1  0  0  0
 15  5  1  0  0  0
 15  9  1  0  0  0
 12 22  1  0  0  0
 21 23  1  0  0  0
M  END
> <minimizedAffinity>
-5.48889

> <CNNscore>
0.5537769198

> <CNNaffinity>
4.6929063797

> <CNN_VS>
2.5988233089

> <CNNaffinity_variance>
0.1053385735

$$$$
[H]O[C@@]1([H])C([H])([H])C([H])([H])[C@]2([H])[C@]1(C([H])([H])[H])C([H])([H])C([H])([H])[C@]1([H])[C@]3(C([H])([H])[H])C(=C([H])C([H])([H])[C@@]21[H])C([H])([H])[C@]([H])(O[H])C([H])([H])C3([H])[H]


 23 26  0  0  0  0  0  0  0  0999 V2000
   34.1826  -16.8439   35.7189 C   0  0  0  0  0  0  0  0  0  0  0  0
   35.3154  -17.7575   35.3759 C   0  0  0  0  0  0  0  0  0  0  0  0
   35.0807  -18.4220   34.0703 C   0  0  0  0  0  0  0  0  0  0  0  0
   34.0735  -19.4936   34.0503 C   0  0  0  0  0  0  0  0  0  0  0  0
   33.8803  -20.2711   35.2865 C   0  0  0  0  0  0  0  0  0  0  0  0
   34.1307  -19.4949   36.5648 C   0  0  0  0  0  0  0  0  0  0  0  0
   34.1221  -20.3672   37.7658 C   0  0  0  0  0  0  0  0  0  0  0  0
   33.3485  -21.6073   37.5820 C   0  0  0  0  0  0  0  0  0  0  0  0
   32.6002  -21.8877   36.5213 C   0  0  0  0  0  0  0  0  0  0  0  0
   31.8950  -23.1968   36.5256 C   0  0  0  0  0  0  0  0  0  0  0  0
   30.9922  -23.3542   35.3275 C   0  0  0  0  0  0  0  0  0  0  0  0
   30.7242  -24.7196   35.1860 O   0  0  0  0  0  0  0  0  0  0  0  0
   31.8339  -22.9342   34.1147 C   0  0  0  0  0  0  0  0  0  0  0  0
   31.9622  -21.4223   34.1525 C   0  0  0  0  0  0  0  0  0  0  0  0
   32.5181  -20.9045   35.4303 C   0  0  0  0  0  0  0  0  0  0  0  0
   31.5760  -19.7925   35.9142 C   0  0  0  0  0  0  0  0  0  0  0  0
   35.4838  -18.8830   36.4052 C   0  0  0  0  0  0  0  0  0  0  0  0
   36.0215  -18.1626   37.5693 C   0  0  0  0  0  0  0  0  0  0  0  0
   37.1358  -17.3438   36.9120 C   0  0  0  0  0  0  0  0  0  0  0  0
   36.6336  -17.0627   35.5041 C   0  0  0  0  0  0  0  0  0  0  0  0
   36.4787  -15.6813   35.4004 O   0  0  0  0  0  0  0  0  0  0  0  0
   30.0359  -25.0100   35.8183 H   0  0  0  0  0  0  0  0  0  0  0  0
   37.1411  -15.2364   35.9932 H   0  0  0  0  0  0  0  0  0  0  0  0
  2  1  1  0  0  0
  2  3  1  0  0  0
  3  4  1  0  0  0
  4  5  1  0  0  0
  5  6  1  0  0  0
  6  7  1  0  0  0
  7  8  1  0  0  0
  8  9  2  0  0  0
  9 10  1  0  0  0
 10 11  1  0  0  0
 11 12  1  0  0  0
 11 13  1  0  0  0
 13 14  1  0  0  0
 14 15  1  0  0  0
 15 16  1  0  0  0
  6 17  1  0  0  0
 17 18  1  0  0  0
 18 19  1  0  0  0
 19 20  1  0  0  0
 20 21  1  0  0  0
 17  2  1  0  0  0
 20  2  1  0  0  0
 15  5  1  0  0  0
 15  9  1  0  0  0
 12 22  1  0  0  0
 21 23  1  0  0  0
M  END
> <minimizedAffinity>
-5.78536

> <CNNscore>
0.5415849090

> <CNNaffinity>
4.5112981796

> <CNN_VS>
2.4432511330

> <CNNaffinity_variance>
0.1811386943

$$$$
[H]O[C@@]1([H])C([H])([H])C([H])([H])[C@]2([H])[C@]1(C([H])([H])[H])C([H])([H])C([H])([H])[C@]1([H])[C@]3(C([H])([H])[H])C(=C([H])C([H])([H])[C@@]21[H])C([H])([H])[C@]([H])(O[H])C([H])([H])C3([H])[H]


 23 26  0  0  0  0  0  0  0  0999 V2000
   39.8143  -18.7636   36.6228 C   0  0  0  0  0  0  0  0  0  0  0  0
   39.5543  -19.6590   35.4540 C   0  0  0  0  0  0  0  0  0  0  0  0
   38.9496  -18.8999   34.3318 C   0  0  0  0  0  0  0  0  0  0  0  0
   37.5381  -18.5155   34.4840 C   0  0  0  0  0  0  0  0  0  0  0  0
   36.6752  -19.3946   35.2917 C   0  0  0  0  0  0  0  0  0  0  0  0
   37.3878  -20.1117   36.4218 C   0  0  0  0  0  0  0  0  0  0  0  0
   36.5288  -21.1321   37.0734 C   0  0  0  0  0  0  0  0  0  0  0  0
   35.0878  -20.8682   36.9184 C   0  0  0  0  0  0  0  0  0  0  0  0
   34.5681  -19.7682   36.3860 C   0  0  0  0  0  0  0  0  0  0  0  0
   33.0846  -19.6920   36.3192 C   0  0  0  0  0  0  0  0  0  0  0  0
   32.6118  -18.3565   35.8015 C   0  0  0  0  0  0  0  0  0  0  0  0
   31.2908  -18.5213   35.3727 O   0  0  0  0  0  0  0  0  0  0  0  0
   33.4569  -18.0721   34.5523 C   0  0  0  0  0  0  0  0  0  0  0  0
   34.8501  -17.6955   35.0224 C   0  0  0  0  0  0  0  0  0  0  0  0
   35.4755  -18.7150   35.9053 C   0  0  0  0  0  0  0  0  0  0  0  0
   35.9892  -17.9786   37.1511 C   0  0  0  0  0  0  0  0  0  0  0  0
   38.5654  -20.7821   35.7934 C   0  0  0  0  0  0  0  0  0  0  0  0
   39.3694  -21.6524   36.6649 C   0  0  0  0  0  0  0  0  0  0  0  0
   40.6542  -21.7768   35.8416 C   0  0  0  0  0  0  0  0  0  0  0  0
   40.7689  -20.4554   35.0970 C   0  0  0  0  0  0  0  0  0  0  0  0
   41.9257  -19.8312   35.5609 O   0  0  0  0  0  0  0  0  0  0  0  0
   30.6718  -18.5144   36.1306 H   0  0  0  0  0  0  0  0  0  0  0  0
   42.5837  -20.5270   35.8273 H   0  0  0  0  0  0  0  0  0  0  0  0
  2  1  1  0  0  0
  2  3  1  0  0  0
  3  4  1  0  0  0
  4  5  1  0  0  0
  5  6  1  0  0  0
  6  7  1  0  0  0
  7  8  1  0  0  0
  8  9  2  0  0  0
  9 10  1  0  0  0
 10 11  1  0  0  0
 11 12  1  0  0  0
 11 13  1  0  0  0
 13 14  1  0  0  0
 14 15  1  0  0  0
 15 16  1  0  0  0
  6 17  1  0  0  0
 17 18  1  0  0  0
 18 19  1  0  0  0
 19 20  1  0  0  0
 20 21  1  0  0  0
 17  2  1  0  0  0
 20  2  1  0  0  0
 15  5  1  0  0  0
 15  9  1  0  0  0
 12 22  1  0  0  0
 21 23  1  0  0  0
M  END
> <minimizedAffinity>
-5.95044

> <CNNscore>
0.5381038189

> <CNNaffinity>
4.6863722801

> <CNN_VS>
2.5217547417

> <CNNaffinity_variance>
0.1581927687

$$$$
[H]Oc1c([H])c([H])c2c(c1[H])C([H])([H])C([H])([H])[C@]1([H])[C@]2([H])C([H])([H])C([H])([H])[C@]2(C([H])([H])[H])[C@@]([H])(O[H])C([H])([H])C([H])([H])[C@]21[H]


 22 25  0  0  0  0  0  0  0  0999 V2000
   35.3270  -17.6080   37.1749 C   0  0  0  0  0  0  0  0  0  0  0  0
   35.4118  -18.0320   35.7284 C   0  0  0  0  0  0  0  0  0  0  0  0
   34.2485  -17.4742   34.9825 C   0  0  0  0  0  0  0  0  0  0  0  0
   32.9607  -18.1371   35.3508 C   0  0  0  0  0  0  0  0  0  0  0  0
   33.0584  -19.6277   35.3986 C   0  0  0  0  0  0  0  0  0  0  0  0
   34.2255  -20.0621   36.2984 C   0  0  0  0  0  0  0  0  0  0  0  0
   34.1482  -21.5270   36.5363 C   0  0  0  0  0  0  0  0  0  0  0  0
   32.9436  -21.7658   37.4589 C   0  0  0  0  0  0  0  0  0  0  0  0
   31.7262  -21.2709   36.7292 C   0  0  0  0  0  0  0  0  0  0  0  0
   30.5009  -21.8308   37.0255 C   0  0  0  0  0  0  0  0  0  0  0  0
   29.3246  -21.4364   36.4009 C   0  0  0  0  0  0  0  0  0  0  0  0
   28.0949  -22.0250   36.7241 O   0  0  0  0  0  0  0  0  0  0  0  0
   29.4181  -20.4428   35.4510 C   0  0  0  0  0  0  0  0  0  0  0  0
   30.6433  -19.8774   35.1495 C   0  0  0  0  0  0  0  0  0  0  0  0
   31.8079  -20.2723   35.7722 C   0  0  0  0  0  0  0  0  0  0  0  0
   35.4444  -19.5661   35.6229 C   0  0  0  0  0  0  0  0  0  0  0  0
   36.7411  -19.8847   36.2417 C   0  0  0  0  0  0  0  0  0  0  0  0
   37.6475  -18.7620   35.7533 C   0  0  0  0  0  0  0  0  0  0  0  0
   36.7487  -17.6996   35.1651 C   0  0  0  0  0  0  0  0  0  0  0  0
   37.1220  -16.4201   35.5446 O   0  0  0  0  0  0  0  0  0  0  0  0
   28.0951  -22.7454   37.4267 H   0  0  0  0  0  0  0  0  0  0  0  0
   36.3334  -15.8054   35.5028 H   0  0  0  0  0  0  0  0  0  0  0  0
  2  1  1  0  0  0
  2  3  1  0  0  0
  3  4  1  0  0  0
  4  5  1  0  0  0
  5  6  1  0  0  0
  6  7  1  0  0  0
  7  8  1  0  0  0
  8  9  1  0  0  0
  9 10  2  0  0  0
 10 11  1  0  0  0
 11 12  1  0  0  0
 11 13  2  0  0  0
 13 14  1  0  0  0
 14 15  2  0  0  0
  6 16  1  0  0  0
 16 17  1  0  0  0
 17 18  1  0  0  0
 18 19  1  0  0  0
 19 20  1  0  0  0
 16  2  1  0  0  0
 19  2  1  0  0  0
 15  5  1  0  0  0
 15  9  1  0  0  0
 12 21  1  0  0  0
 20 22  1  0  0  0
M  END
> <minimizedAffinity>
-5.46889

> <CNNscore>
0.6595386267

> <CNNaffinity>
4.4452886581

> <CNN_VS>
2.9318394661

> <CNNaffinity_variance>
0.2019553185

$$$$
[H]Oc1c([H])c([H])c2c(c1[H])C([H])([H])C([H])([H])[C@]1([H])[C@]2([H])C([H])([H])C([H])([H])[C@]2(C([H])([H])[H])[C@@]([H])(O[H])C([H])([H])C([H])([H])[C@]21[H]


 22 25  0  0  0  0  0  0  0  0999 V2000
   32.1385  -21.9335   34.0836 C   0  0  0  0  0  0  0  0  0  0  0  0
   32.4510  -21.0168   35.2416 C   0  0  0  0  0  0  0  0  0  0  0  0
   33.1472  -21.7903   36.3084 C   0  0  0  0  0  0  0  0  0  0  0  0
   32.2391  -22.7525   37.0035 C   0  0  0  0  0  0  0  0  0  0  0  0
   30.9220  -22.1535   37.3780 C   0  0  0  0  0  0  0  0  0  0  0  0
   30.2628  -21.4958   36.1559 C   0  0  0  0  0  0  0  0  0  0  0  0
   28.8586  -21.1372   36.4844 C   0  0  0  0  0  0  0  0  0  0  0  0
   28.0741  -22.4539   36.5853 C   0  0  0  0  0  0  0  0  0  0  0  0
   28.7010  -23.2553   37.6916 C   0  0  0  0  0  0  0  0  0  0  0  0
   27.9244  -24.1707   38.3711 C   0  0  0  0  0  0  0  0  0  0  0  0
   28.4192  -24.9531   39.4065 C   0  0  0  0  0  0  0  0  0  0  0  0
   27.6044  -25.8745   40.0775 O   0  0  0  0  0  0  0  0  0  0  0  0
   29.7440  -24.7852   39.7455 C   0  0  0  0  0  0  0  0  0  0  0  0
   30.5279  -23.8694   39.0683 C   0  0  0  0  0  0  0  0  0  0  0  0
   30.0321  -23.0952   38.0414 C   0  0  0  0  0  0  0  0  0  0  0  0
   31.1594  -20.3803   35.7821 C   0  0  0  0  0  0  0  0  0  0  0  0
   30.7482  -19.5267   34.6561 C   0  0  0  0  0  0  0  0  0  0  0  0
   32.0692  -18.9788   34.1313 C   0  0  0  0  0  0  0  0  0  0  0  0
   33.1661  -19.8012   34.7662 C   0  0  0  0  0  0  0  0  0  0  0  0
   34.1559  -20.1525   33.8621 O   0  0  0  0  0  0  0  0  0  0  0  0
   26.6456  -25.9487   39.7812 H   0  0  0  0  0  0  0  0  0  0  0  0
   34.6191  -20.9859   34.1662 H   0  0  0  0  0  0  0  0  0  0  0  0
  2  1  1  0  0  0
  2  3  1  0  0  0
  3  4  1  0  0  0
  4  5  1  0  0  0
  5  6  1  0  0  0
  6  7  1  0  0  0
  7  8  1  0  0  0
  8  9  1  0  0  0
  9 10  2  0  0  0
 10 11  1  0  0  0
 11 12  1  0  0  0
 11 13  2  0  0  0
 13 14  1  0  0  0
 14 15  2  0  0  0
  6 16  1  0  0  0
 16 17  1  0  0  0
 17 18  1  0  0  0
 18 19  1  0  0  0
 19 20  1  0  0  0
 16  2  1  0  0  0
 19  2  1  0  0  0
 15  5  1  0  0  0
 15  9  1  0  0  0
 12 21  1  0  0  0
 20 22  1  0  0  0
M  END
> <minimizedAffinity>
-4.65544

> <CNNscore>
0.6329404712

> <CNNaffinity>
4.0068097115

> <CNN_VS>
2.5360720158

> <CNNaffinity_variance>
0.2835201025

$$$$
[H]Oc1c([H])c([H])c2c(c1[H])C([H])([H])C([H])([H])[C@]1([H])[C@]2([H])C([H])([H])C([H])([H])[C@]2(C([H])([H])[H])[C@@]([H])(O[H])C([H])([H])C([H])([H])[C@]21[H]


 22 25  0  0  0  0  0  0  0  0999 V2000
   29.0056  -22.1875   38.2347 C   0  0  0  0  0  0  0  0  0  0  0  0
   29.7387  -23.1321   37.3131 C   0  0  0  0  0  0  0  0  0  0  0  0
   31.1239  -23.3408   37.8217 C   0  0  0  0  0  0  0  0  0  0  0  0
   31.9835  -22.1296   37.6555 C   0  0  0  0  0  0  0  0  0  0  0  0
   31.8662  -21.5054   36.3026 C   0  0  0  0  0  0  0  0  0  0  0  0
   30.3929  -21.2363   35.9599 C   0  0  0  0  0  0  0  0  0  0  0  0
   30.3151  -20.3921   34.7393 C   0  0  0  0  0  0  0  0  0  0  0  0
   30.7995  -18.9894   35.1358 C   0  0  0  0  0  0  0  0  0  0  0  0
   32.2201  -19.1316   35.6060 C   0  0  0  0  0  0  0  0  0  0  0  0
   33.0687  -18.0501   35.4925 C   0  0  0  0  0  0  0  0  0  0  0  0
   34.3959  -18.0914   35.9000 C   0  0  0  0  0  0  0  0  0  0  0  0
   35.2330  -16.9752   35.7713 O   0  0  0  0  0  0  0  0  0  0  0  0
   34.8541  -19.2752   36.4355 C   0  0  0  0  0  0  0  0  0  0  0  0
   34.0085  -20.3629   36.5522 C   0  0  0  0  0  0  0  0  0  0  0  0
   32.6921  -20.3169   36.1463 C   0  0  0  0  0  0  0  0  0  0  0  0
   29.7606  -22.5712   35.8812 C   0  0  0  0  0  0  0  0  0  0  0  0
   28.3371  -22.6276   35.5120 C   0  0  0  0  0  0  0  0  0  0  0  0
   27.8640  -23.9324   36.1397 C   0  0  0  0  0  0  0  0  0  0  0  0
   28.9448  -24.3727   37.0991 C   0  0  0  0  0  0  0  0  0  0  0  0
   28.4316  -24.8250   38.3043 O   0  0  0  0  0  0  0  0  0  0  0  0
   34.8367  -16.1408   35.3721 H   0  0  0  0  0  0  0  0  0  0  0  0
   29.1135  -24.7203   39.0292 H   0  0  0  0  0  0  0  0  0  0  0  0
  2  1  1  0  0  0
  2  3  1  0  0  0
  3  4  1  0  0  0
  4  5  1  0  0  0
  5  6  1  0  0  0
  6  7  1  0  0  0
  7  8  1  0  0  0
  8  9  1  0  0  0
  9 10  2  0  0  0
 10 11  1  0  0  0
 11 12  1  0  0  0
 11 13  2  0  0  0
 13 14  1  0  0  0
 14 15  2  0  0  0
  6 16  1  0  0  0
 16 17  1  0  0  0
 17 18  1  0  0  0
 18 19  1  0  0  0
 19 20  1  0  0  0
 16  2  1  0  0  0
 19  2  1  0  0  0
 15  5  1  0  0  0
 15  9  1  0  0  0
 12 21  1  0  0  0
 20 22  1  0  0  0
M  END
> <minimizedAffinity>
-4.64231

> <CNNscore>
0.6123380661

> <CNNaffinity>
4.1118025780

> <CNN_VS>
2.5178132057

> <CNNaffinity_variance>
0.1325646937

$$$$
[H]Oc1c([H])c([H])c2c(c1[H])C([H])([H])C([H])([H])[C@]1([H])[C@]2([H])C([H])([H])C([H])([H])[C@]2(C([H])([H])[H])[C@@]([H])(O[H])C([H])([H])C([H])([H])[C@]21[H]


 22 25  0  0  0  0  0  0  0  0999 V2000
   34.3358  -19.8720   33.8950 C   0  0  0  0  0  0  0  0  0  0  0  0
   33.2621  -19.5470   34.9053 C   0  0  0  0  0  0  0  0  0  0  0  0
   32.6502  -18.2307   34.5677 C   0  0  0  0  0  0  0  0  0  0  0  0
   33.5755  -17.0858   34.8257 C   0  0  0  0  0  0  0  0  0  0  0  0
   34.2633  -17.1716   36.1499 C   0  0  0  0  0  0  0  0  0  0  0  0
   34.9511  -18.5359   36.3118 C   0  0  0  0  0  0  0  0  0  0  0  0
   35.8331  -18.5065   37.5075 C   0  0  0  0  0  0  0  0  0  0  0  0
   37.0244  -17.6011   37.1605 C   0  0  0  0  0  0  0  0  0  0  0  0
   36.4678  -16.2365   36.8648 C   0  0  0  0  0  0  0  0  0  0  0  0
   37.2698  -15.1331   37.0703 C   0  0  0  0  0  0  0  0  0  0  0  0
   36.8388  -13.8357   36.8248 C   0  0  0  0  0  0  0  0  0  0  0  0
   37.6779  -12.7352   37.0437 O   0  0  0  0  0  0  0  0  0  0  0  0
   35.5526  -13.6768   36.3574 C   0  0  0  0  0  0  0  0  0  0  0  0
   34.7436  -14.7787   36.1492 C   0  0  0  0  0  0  0  0  0  0  0  0
   35.1760  -16.0643   36.3943 C   0  0  0  0  0  0  0  0  0  0  0  0
   33.8533  -19.5272   36.3250 C   0  0  0  0  0  0  0  0  0  0  0  0
   34.2162  -20.9398   36.5217 C   0  0  0  0  0  0  0  0  0  0  0  0
   33.0727  -21.6915   35.8524 C   0  0  0  0  0  0  0  0  0  0  0  0
   32.3058  -20.6803   35.0327 C   0  0  0  0  0  0  0  0  0  0  0  0
   31.9668  -21.1623   33.7784 O   0  0  0  0  0  0  0  0  0  0  0  0
   38.6061  -12.9196   37.3860 H   0  0  0  0  0  0  0  0  0  0  0  0
   31.8446  -20.4019   33.1395 H   0  0  0  0  0  0  0  0  0  0  0  0
  2  1  1  0  0  0
  2  3  1  0  0  0
  3  4  1  0  0  0
  4  5  1  0  0  0
  5  6  1  0  0  0
  6  7  1  0  0  0
  7  8  1  0  0  0
  8  9  1  0  0  0
  9 10  2  0  0  0
 10 11  1  0  0  0
 11 12  1  0  0  0
 11 13  2  0  0  0
 13 14  1  0  0  0
 14 15  2  0  0  0
  6 16  1  0  0  0
 16 17  1  0  0  0
 17 18  1  0  0  0
 18 19  1  0  0  0
 19 20  1  0  0  0
 16  2  1  0  0  0
 19  2  1  0  0  0
 15  5  1  0  0  0
 15  9  1  0  0  0
 12 21  1  0  0  0
 20 22  1  0  0  0
M  END
> <minimizedAffinity>
-7.14548

> <CNNscore>
0.5878711939

> <CNNaffinity>
4.6618514061

> <CNN_VS>
2.7405681610

> <CNNaffinity_variance>
0.2196165770

$$$$
[H]Oc1c([H])c([H])c2c(c1[H])C([H])([H])C([H])([H])[C@]1([H])[C@]2([H])C([H])([H])C([H])([H])[C@]2(C([H])([H])[H])[C@@]([H])(O[H])C([H])([H])C([H])([H])[C@]21[H]


 22 25  0  0  0  0  0  0  0  0999 V2000
   32.1079  -20.6565   36.9868 C   0  0  0  0  0  0  0  0  0  0  0  0
   33.2948  -21.1182   36.1762 C   0  0  0  0  0  0  0  0  0  0  0  0
   34.5212  -21.0595   37.0208 C   0  0  0  0  0  0  0  0  0  0  0  0
   34.9556  -19.6577   37.3034 C   0  0  0  0  0  0  0  0  0  0  0  0
   34.9489  -18.7836   36.0911 C   0  0  0  0  0  0  0  0  0  0  0  0
   33.5847  -18.8495   35.3874 C   0  0  0  0  0  0  0  0  0  0  0  0
   33.5132  -17.7912   34.3466 C   0  0  0  0  0  0  0  0  0  0  0  0
   33.4143  -16.4471   35.0834 C   0  0  0  0  0  0  0  0  0  0  0  0
   34.6603  -16.3077   35.9125 C   0  0  0  0  0  0  0  0  0  0  0  0
   35.1148  -15.0423   36.2210 C   0  0  0  0  0  0  0  0  0  0  0  0
   36.2563  -14.8191   36.9801 C   0  0  0  0  0  0  0  0  0  0  0  0
   36.6923  -13.5209   37.2765 O   0  0  0  0  0  0  0  0  0  0  0  0
   36.9412  -15.9271   37.4290 C   0  0  0  0  0  0  0  0  0  0  0  0
   36.4909  -17.1981   37.1234 C   0  0  0  0  0  0  0  0  0  0  0  0
   35.3573  -17.4144   36.3696 C   0  0  0  0  0  0  0  0  0  0  0  0
   33.4543  -20.2465   34.9191 C   0  0  0  0  0  0  0  0  0  0  0  0
   32.2474  -20.5961   34.1530 C   0  0  0  0  0  0  0  0  0  0  0  0
   32.0951  -22.0911   34.4024 C   0  0  0  0  0  0  0  0  0  0  0  0
   33.0158  -22.4387   35.5487 C   0  0  0  0  0  0  0  0  0  0  0  0
   32.4205  -23.2878   36.4680 O   0  0  0  0  0  0  0  0  0  0  0  0
   36.1470  -12.7547   36.9185 H   0  0  0  0  0  0  0  0  0  0  0  0
   32.8504  -23.1791   37.3650 H   0  0  0  0  0  0  0  0  0  0  0  0
  2  1  1  0  0  0
  2  3  1  0  0  0
  3  4  1  0  0  0
  4  5  1  0  0  0
  5  6  1  0  0  0
  6  7  1  0  0  0
  7  8  1  0  0  0
  8  9  1  0  0  0
  9 10  2  0  0  0
 10 11  1  0  0  0
 11 12  1  0  0  0
 11 13  2  0  0  0
 13 14  1  0  0  0
 14 15  2  0  0  0
  6 16  1  0  0  0
 16 17  1  0  0  0
 17 18  1  0  0  0
 18 19  1  0  0  0
 19 20  1  0  0  0
 16  2  1  0  0  0
 19  2  1  0  0  0
 15  5  1  0  0  0
 15  9  1  0  0  0
 12 21  1  0  0  0
 20 22  1  0  0  0
M  END
> <minimizedAffinity>
-6.11784

> <CNNscore>
0.5764992833

> <CNNaffinity>
4.4647340775

> <CNN_VS>
2.5739159584

> <CNNaffinity_variance>
0.1738803834

$$$$
[H]Oc1c([H])c([H])c2c(c1[H])C([H])([H])C([H])([H])[C@]1([H])[C@]2([H])C([H])([H])C([H])([H])[C@]2(C([H])([H])[H])[C@@]([H])(O[H])C([H])([H])C([H])([H])[C@]21[H]


 22 25  0  0  0  0  0  0  0  0999 V2000
   30.8878  -21.7673   37.0161 C   0  0  0  0  0  0  0  0  0  0  0  0
   32.1455  -22.5391   36.6976 C   0  0  0  0  0  0  0  0  0  0  0  0
   33.1447  -22.3219   37.7817 C   0  0  0  0  0  0  0  0  0  0  0  0
   33.7059  -20.9368   37.7744 C   0  0  0  0  0  0  0  0  0  0  0  0
   34.1018  -20.4691   36.4112 C   0  0  0  0  0  0  0  0  0  0  0  0
   32.9371  -20.6405   35.4240 C   0  0  0  0  0  0  0  0  0  0  0  0
   33.2591  -19.9414   34.1527 C   0  0  0  0  0  0  0  0  0  0  0  0
   33.1958  -18.4346   34.4441 C   0  0  0  0  0  0  0  0  0  0  0  0
   34.2293  -18.1468   35.4970 C   0  0  0  0  0  0  0  0  0  0  0  0
   34.7839  -16.8852   35.5560 C   0  0  0  0  0  0  0  0  0  0  0  0
   35.7449  -16.5308   36.4942 C   0  0  0  0  0  0  0  0  0  0  0  0
   36.2893  -15.2402   36.5283 O   0  0  0  0  0  0  0  0  0  0  0  0
   36.1398  -17.5011   37.3890 C   0  0  0  0  0  0  0  0  0  0  0  0
   35.5877  -18.7676   37.3353 C   0  0  0  0  0  0  0  0  0  0  0  0
   34.6342  -19.1144   36.4022 C   0  0  0  0  0  0  0  0  0  0  0  0
   32.7112  -22.0997   35.3365 C   0  0  0  0  0  0  0  0  0  0  0  0
   31.6702  -22.5713   34.4093 C   0  0  0  0  0  0  0  0  0  0  0  0
   31.2469  -23.9066   35.0081 C   0  0  0  0  0  0  0  0  0  0  0  0
   31.8237  -23.9621   36.4033 C   0  0  0  0  0  0  0  0  0  0  0  0
   30.9179  -24.4487   37.3324 O   0  0  0  0  0  0  0  0  0  0  0  0
   35.9579  -14.5781   35.8468 H   0  0  0  0  0  0  0  0  0  0  0  0
   31.1456  -24.1083   38.2454 H   0  0  0  0  0  0  0  0  0  0  0  0
  2  1  1  0  0  0
  2  3  1  0  0  0
  3  4  1  0  0  0
  4  5  1  0  0  0
  5  6  1  0  0  0
  6  7  1  0  0  0
  7  8  1  0  0  0
  8  9  1  0  0  0
  9 10  2  0  0  0
 10 11  1  0  0  0
 11 12  1  0  0  0
 11 13  2  0  0  0
 13 14  1  0  0  0
 14 15  2  0  0  0
  6 16  1  0  0  0
 16 17  1  0  0  0
 17 18  1  0  0  0
 18 19  1  0  0  0
 19 20  1  0  0  0
 16  2  1  0  0  0
 19  2  1  0  0  0
 15  5  1  0  0  0
 15  9  1  0  0  0
 12 21  1  0  0  0
 20 22  1  0  0  0
M  END
> <minimizedAffinity>
-5.57433

> <CNNscore>
0.5597444177

> <CNNaffinity>
4.1603078842

> <CNN_VS>
2.3287091255

> <CNNaffinity_variance>
0.1521745920

$$$$
[H]Oc1c([H])c([H])c2c(c1[H])C([H])([H])C([H])([H])[C@]1([H])[C@]2([H])C([H])([H])C([H])([H])[C@]2(C([H])([H])[H])[C@@]([H])(O[H])C([H])([H])C([H])([H])[C@]21[H]


 22 25  0  0  0  0  0  0  0  0999 V2000
   29.4666  -24.2479   35.7419 C   0  0  0  0  0  0  0  0  0  0  0  0
   28.9272  -23.1952   36.6799 C   0  0  0  0  0  0  0  0  0  0  0  0
   28.4777  -22.0145   35.8893 C   0  0  0  0  0  0  0  0  0  0  0  0
   29.6197  -21.2495   35.3027 C   0  0  0  0  0  0  0  0  0  0  0  0
   30.7275  -21.0066   36.2761 C   0  0  0  0  0  0  0  0  0  0  0  0
   31.1715  -22.3259   36.9265 C   0  0  0  0  0  0  0  0  0  0  0  0
   32.4281  -22.1038   37.6881 C   0  0  0  0  0  0  0  0  0  0  0  0
   33.5423  -21.8805   36.6545 C   0  0  0  0  0  0  0  0  0  0  0  0
   33.1674  -20.6602   35.8609 C   0  0  0  0  0  0  0  0  0  0  0  0
   34.1700  -19.9106   35.2817 C   0  0  0  0  0  0  0  0  0  0  0  0
   33.9164  -18.7687   34.5327 C   0  0  0  0  0  0  0  0  0  0  0  0
   34.9574  -18.0285   33.9570 O   0  0  0  0  0  0  0  0  0  0  0  0
   32.5991  -18.3951   34.3799 C   0  0  0  0  0  0  0  0  0  0  0  0
   31.5893  -19.1422   34.9578 C   0  0  0  0  0  0  0  0  0  0  0  0
   31.8462  -20.2747   35.7003 C   0  0  0  0  0  0  0  0  0  0  0  0
   30.0018  -22.7910   37.7033 C   0  0  0  0  0  0  0  0  0  0  0  0
   30.1547  -24.0277   38.4863 C   0  0  0  0  0  0  0  0  0  0  0  0
   28.7297  -24.5563   38.5878 C   0  0  0  0  0  0  0  0  0  0  0  0
   27.9039  -23.7809   37.5882 C   0  0  0  0  0  0  0  0  0  0  0  0
   27.0387  -24.5928   36.8720 O   0  0  0  0  0  0  0  0  0  0  0  0
   35.8974  -18.3550   34.1063 H   0  0  0  0  0  0  0  0  0  0  0  0
   26.8227  -24.1717   35.9904 H   0  0  0  0  0  0  0  0  0  0  0  0
  2  1  1  0  0  0
  2  3  1  0  0  0
  3  4  1  0  0  0
  4  5  1  0  0  0
  5  6  1  0  0  0
  6  7  1  0  0  0
  7  8  1  0  0  0
  8  9  1  0  0  0
  9 10  2  0  0  0
 10 11  1  0  0  0
 11 12  1  0  0  0
 11 13  2  0  0  0
 13 14  1  0  0  0
 14 15  2  0  0  0
  6 16  1  0  0  0
 16 17  1  0  0  0
 17 18  1  0  0  0
 18 19  1  0  0  0
 19 20  1  0  0  0
 16  2  1  0  0  0
 19  2  1  0  0  0
 15  5  1  0  0  0
 15  9  1  0  0  0
 12 21  1  0  0  0
 20 22  1  0  0  0
M  END
> <minimizedAffinity>
-4.53748

> <CNNscore>
0.5563636422

> <CNNaffinity>
4.0761260986

> <CNN_VS>
2.2678084373

> <CNNaffinity_variance>
0.1893720180

$$$$
[H]Oc1c([H])c([H])c2c(c1[H])C([H])([H])C([H])([H])[C@]1([H])[C@]2([H])C([H])([H])C([H])([H])[C@]2(C([H])([H])[H])[C@@]([H])(O[H])C([H])([H])C([H])([H])[C@]21[H]


 22 25  0  0  0  0  0  0  0  0999 V2000
   34.3732  -19.4920   34.2954 C   0  0  0  0  0  0  0  0  0  0  0  0
   33.9679  -18.8689   35.6094 C   0  0  0  0  0  0  0  0  0  0  0  0
   35.1485  -18.1948   36.2199 C   0  0  0  0  0  0  0  0  0  0  0  0
   36.1675  -19.1666   36.7206 C   0  0  0  0  0  0  0  0  0  0  0  0
   35.5731  -20.2912   37.5053 C   0  0  0  0  0  0  0  0  0  0  0  0
   34.4505  -20.9707   36.7062 C   0  0  0  0  0  0  0  0  0  0  0  0
   34.0517  -22.2304   37.3864 C   0  0  0  0  0  0  0  0  0  0  0  0
   35.2078  -23.2240   37.1980 C   0  0  0  0  0  0  0  0  0  0  0  0
   36.4192  -22.6174   37.8489 C   0  0  0  0  0  0  0  0  0  0  0  0
   37.4063  -23.4546   38.3260 C   0  0  0  0  0  0  0  0  0  0  0  0
   38.5583  -22.9823   38.9417 C   0  0  0  0  0  0  0  0  0  0  0  0
   39.5431  -23.8589   39.4159 O   0  0  0  0  0  0  0  0  0  0  0  0
   38.6916  -21.6167   39.0662 C   0  0  0  0  0  0  0  0  0  0  0  0
   37.7059  -20.7721   38.5900 C   0  0  0  0  0  0  0  0  0  0  0  0
   36.5644  -21.2457   37.9797 C   0  0  0  0  0  0  0  0  0  0  0  0
   33.4000  -19.9403   36.5556 C   0  0  0  0  0  0  0  0  0  0  0  0
   32.1610  -20.3296   35.8635 C   0  0  0  0  0  0  0  0  0  0  0  0
   31.6392  -19.0097   35.3104 C   0  0  0  0  0  0  0  0  0  0  0  0
   32.7656  -18.0100   35.4304 C   0  0  0  0  0  0  0  0  0  0  0  0
   32.9029  -17.2273   34.2950 O   0  0  0  0  0  0  0  0  0  0  0  0
   39.3849  -24.8452   39.2939 H   0  0  0  0  0  0  0  0  0  0  0  0
   33.8421  -16.8901   34.2215 H   0  0  0  0  0  0  0  0  0  0  0  0
  2  1  1  0  0  0
  2  3  1  0  0  0
  3  4  1  0  0  0
  4  5  1  0  0  0
  5  6  1  0  0  0
  6  7  1  0  0  0
  7  8  1  0  0  0
  8  9  1  0  0  0
  9 10  2  0  0  0
 10 11  1  0  0  0
 11 12  1  0  0  0
 11 13  2  0  0  0
 13 14  1  0  0  0
 14 15  2  0  0  0
  6 16  1  0  0  0
 16 17  1  0  0  0
 17 18  1  0  0  0
 18 19  1  0  0  0
 19 20  1  0  0  0
 16  2  1  0  0  0
 19  2  1  0  0  0
 15  5  1  0  0  0
 15  9  1  0  0  0
 12 21  1  0  0  0
 20 22  1  0  0  0
M  END
> <minimizedAffinity>
-4.52448

> <CNNscore>
0.5386645794

> <CNNaffinity>
4.1376252174

> <CNN_VS>
2.2287921906

> <CNNaffinity_variance>
0.0916796774

$$$$
[H]Oc1c([H])c([H])c2c(c1[H])C([H])([H])C([H])([H])[C@]1([H])[C@]2([H])C([H])([H])C([H])([H])[C@]2(C([H])([H])[H])[C@@]([H])(O[H])C([H])([H])C([H])([H])[C@]21[H]


 22 25  0  0  0  0  0  0  0  0999 V2000
   36.3824  -17.1192   35.3380 C   0  0  0  0  0  0  0  0  0  0  0  0
   35.5748  -16.9789   36.6057 C   0  0  0  0  0  0  0  0  0  0  0  0
   35.8755  -18.1240   37.5108 C   0  0  0  0  0  0  0  0  0  0  0  0
   35.3112  -19.4139   37.0095 C   0  0  0  0  0  0  0  0  0  0  0  0
   33.8955  -19.2963   36.5451 C   0  0  0  0  0  0  0  0  0  0  0  0
   33.7562  -18.1544   35.5266 C   0  0  0  0  0  0  0  0  0  0  0  0
   32.4140  -18.2185   34.8920 C   0  0  0  0  0  0  0  0  0  0  0  0
   32.4131  -19.4504   33.9745 C   0  0  0  0  0  0  0  0  0  0  0  0
   32.6567  -20.6492   34.8480 C   0  0  0  0  0  0  0  0  0  0  0  0
   32.1728  -21.8757   34.4428 C   0  0  0  0  0  0  0  0  0  0  0  0
   32.3501  -23.0355   35.1862 C   0  0  0  0  0  0  0  0  0  0  0  0
   31.8460  -24.2669   34.7472 O   0  0  0  0  0  0  0  0  0  0  0  0
   33.0420  -22.9240   36.3723 C   0  0  0  0  0  0  0  0  0  0  0  0
   33.5298  -21.6975   36.7841 C   0  0  0  0  0  0  0  0  0  0  0  0
   33.3512  -20.5493   36.0428 C   0  0  0  0  0  0  0  0  0  0  0  0
   34.0732  -16.9204   36.2782 C   0  0  0  0  0  0  0  0  0  0  0  0
   33.9698  -15.6412   35.5580 C   0  0  0  0  0  0  0  0  0  0  0  0
   34.9332  -14.7350   36.3139 C   0  0  0  0  0  0  0  0  0  0  0  0
   35.7685  -15.6284   37.2006 C   0  0  0  0  0  0  0  0  0  0  0  0
   37.1116  -15.2870   37.1825 O   0  0  0  0  0  0  0  0  0  0  0  0
   31.3498  -24.2803   33.8719 H   0  0  0  0  0  0  0  0  0  0  0  0
   37.6717  -16.0825   37.4167 H   0  0  0  0  0  0  0  0  0  0  0  0
  2  1  1  0  0  0
  2  3  1  0  0  0
  3  4  1  0  0  0
  4  5  1  0  0  0
  5  6  1  0  0  0
  6  7  1  0  0  0
  7  8  1  0  0  0
  8  9  1  0  0  0
  9 10  2  0  0  0
 10 11  1  0  0  0
 11 12  1  0  0  0
 11 13  2  0  0  0
 13 14  1  0  0  0
 14 15  2  0  0  0
  6 16  1  0  0  0
 16 17  1  0  0  0
 17 18  1  0  0  0
 18 19  1  0  0  0
 19 20  1  0  0  0
 16  2  1  0  0  0
 19  2  1  0  0  0
 15  5  1  0  0  0
 15  9  1  0  0  0
 12 21  1  0  0  0
 20 22  1  0  0  0
M  END
> <minimizedAffinity>
-6.33527

> <CNNscore>
0.5321826935

> <CNNaffinity>
4.3646154404

> <CNN_VS>
2.3227727413

> <CNNaffinity_variance>
0.3705804944

$$$$
[H]Oc1c([H])c([H])c2c(c1[H])C([H])([H])C([H])([H])[C@]1([H])[C@]2([H])C([H])([H])C([H])([H])[C@]2(C([H])([H])[H])[C@@](C#Cc3c([H])c([H])c([H])c([H])c3[H])(O[H])C([H])([H])C([H])([H])[C@]21[H]


 30 34  0  0  0  0  0  0  0  0999 V2000
   35.7557  -20.6927   36.5113 C   0  0  0  0  0  0  0  0  0  0  0  0
   37.1084  -21.3460   36.6484 C   0  0  0  0  0  0  0  0  0  0  0  0
   37.0146  -22.8174   36.4739 C   0  0  0  0  0  0  0  0  0  0  0  0
   35.9908  -23.3427   37.4253 C   0  0  0  0  0  0  0  0  0  0  0  0
   36.2739  -22.9709   38.8315 C   0  0  0  0  0  0  0  0  0  0  0  0
   36.6994  -21.5416   39.0353 C   0  0  0  0  0  0  0  0  0  0  0  0
   37.3104  -21.4810   40.4425 C   0  0  0  0  0  0  0  0  0  0  0  0
   36.3124  -21.8180   41.5016 C   0  0  0  0  0  0  0  0  0  0  0  0
   35.2094  -22.6844   41.0130 C   0  0  0  0  0  0  0  0  0  0  0  0
   34.1742  -22.9198   41.9194 C   0  0  0  0  0  0  0  0  0  0  0  0
   33.1001  -23.7112   41.5672 C   0  0  0  0  0  0  0  0  0  0  0  0
   32.0482  -23.9648   42.4543 O   0  0  0  0  0  0  0  0  0  0  0  0
   33.0536  -24.2727   40.3061 C   0  0  0  0  0  0  0  0  0  0  0  0
   34.1006  -24.0245   39.4131 C   0  0  0  0  0  0  0  0  0  0  0  0
   35.1698  -23.2393   39.7577 C   0  0  0  0  0  0  0  0  0  0  0  0
   37.7032  -21.1108   38.0323 C   0  0  0  0  0  0  0  0  0  0  0  0
   37.9864  -19.6557   38.0002 C   0  0  0  0  0  0  0  0  0  0  0  0
   38.3853  -19.3791   36.5649 C   0  0  0  0  0  0  0  0  0  0  0  0
   38.0722  -20.6400   35.7741 C   0  0  0  0  0  0  0  0  0  0  0  0
   37.5503  -20.2610   34.5595 O   0  0  0  0  0  0  0  0  0  0  0  0
   32.1175  -24.7743   43.0655 H   0  0  0  0  0  0  0  0  0  0  0  0
   37.4304  -19.2948   34.4930 H   0  0  0  0  0  0  0  0  0  0  0  0
   39.2685  -21.4776   35.6316 C   0  0  0  0  0  0  0  0  0  0  0  0
   40.2483  -22.1511   35.5326 C   0  0  0  0  0  0  0  0  0  0  0  0
   41.4275  -22.9666   35.4374 C   0  0  0  0  0  0  0  0  0  0  0  0
   42.2879  -22.8637   34.3495 C   0  0  0  0  0  0  0  0  0  0  0  0
   43.4181  -23.6487   34.2634 C   0  0  0  0  0  0  0  0  0  0  0  0
   43.7380  -24.5608   35.2461 C   0  0  0  0  0  0  0  0  0  0  0  0
   42.8836  -24.6629   36.3264 C   0  0  0  0  0  0  0  0  0  0  0  0
   41.7543  -23.8720   36.4028 C   0  0  0  0  0  0  0  0  0  0  0  0
  2  1  1  0  0  0
  2  3  1  0  0  0
  3  4  1  0  0  0
  4  5  1  0  0  0
  5  6  1  0  0  0
  6  7  1  0  0  0
  7  8  1  0  0  0
  8  9  1  0  0  0
  9 10  2  0  0  0
 10 11  1  0  0  0
 11 12  1  0  0  0
 11 13  2  0  0  0
 13 14  1  0  0  0
 14 15  2  0  0  0
  6 16  1  0  0  0
 16 17  1  0  0  0
 17 18  1  0  0  0
 18 19  1  0  0  0
 19 20  1  0  0  0
 19 23  1  0  0  0
 23 24  3  0  0  0
 24 25  1  0  0  0
 25 26  2  0  0  0
 26 27  1  0  0  0
 27 28  2  0  0  0
 28 29  1  0  0  0
 29 30  2  0  0  0
 16  2  1  0  0  0
 30 25  1  0  0  0
 19  2  1  0  0  0
 15  5  1  0  0  0
 15  9  1  0  0  0
 12 21  1  0  0  0
 20 22  1  0  0  0
M  END
> <minimizedAffinity>
-2.12831

> <CNNscore>
0.5890505314

> <CNNaffinity>
5.0626821518

> <CNN_VS>
2.9821755886

> <CNNaffinity_variance>
0.8272871971

$$$$
[H]Oc1c([H])c([H])c2c(c1[H])C([H])([H])C([H])([H])[C@]1([H])[C@]2([H])C([H])([H])C([H])([H])[C@]2(C([H])([H])[H])[C@@](C#Cc3c([H])c([H])c([H])c([H])c3[H])(O[H])C([H])([H])C([H])([H])[C@]21[H]


 30 34  0  0  0  0  0  0  0  0999 V2000
   34.6862  -20.6090   40.2549 C   0  0  0  0  0  0  0  0  0  0  0  0
   35.8732  -21.1968   39.5334 C   0  0  0  0  0  0  0  0  0  0  0  0
   36.4616  -20.2201   38.5825 C   0  0  0  0  0  0  0  0  0  0  0  0
   35.3814  -19.7349   37.6731 C   0  0  0  0  0  0  0  0  0  0  0  0
   34.6875  -20.8396   36.9703 C   0  0  0  0  0  0  0  0  0  0  0  0
   34.3472  -22.0247   37.8337 C   0  0  0  0  0  0  0  0  0  0  0  0
   34.0171  -23.1697   36.8655 C   0  0  0  0  0  0  0  0  0  0  0  0
   32.8256  -22.8616   36.0190 C   0  0  0  0  0  0  0  0  0  0  0  0
   32.5982  -21.4054   35.8349 C   0  0  0  0  0  0  0  0  0  0  0  0
   31.4228  -21.0530   35.1695 C   0  0  0  0  0  0  0  0  0  0  0  0
   31.1143  -19.7269   34.9456 C   0  0  0  0  0  0  0  0  0  0  0  0
   29.9438  -19.3435   34.2817 O   0  0  0  0  0  0  0  0  0  0  0  0
   31.9790  -18.7437   35.3856 C   0  0  0  0  0  0  0  0  0  0  0  0
   33.1511  -19.1178   36.0501 C   0  0  0  0  0  0  0  0  0  0  0  0
   33.4624  -20.4335   36.2751 C   0  0  0  0  0  0  0  0  0  0  0  0
   35.4768  -22.4176   38.7106 C   0  0  0  0  0  0  0  0  0  0  0  0
   35.1483  -23.4048   39.7670 C   0  0  0  0  0  0  0  0  0  0  0  0
   36.1193  -23.0965   40.8885 C   0  0  0  0  0  0  0  0  0  0  0  0
   36.7975  -21.7832   40.5300 C   0  0  0  0  0  0  0  0  0  0  0  0
   36.9213  -21.0410   41.6812 O   0  0  0  0  0  0  0  0  0  0  0  0
   29.9741  -19.2426   33.2705 H   0  0  0  0  0  0  0  0  0  0  0  0
   36.4976  -21.4720   42.4473 H   0  0  0  0  0  0  0  0  0  0  0  0
   38.0900  -22.0238   39.8783 C   0  0  0  0  0  0  0  0  0  0  0  0
   39.1427  -22.2363   39.3586 C   0  0  0  0  0  0  0  0  0  0  0  0
   40.4045  -22.5157   38.7306 C   0  0  0  0  0  0  0  0  0  0  0  0
   40.5066  -22.6548   37.3506 C   0  0  0  0  0  0  0  0  0  0  0  0
   41.7201  -22.9228   36.7534 C   0  0  0  0  0  0  0  0  0  0  0  0
   42.8729  -23.0629   37.4959 C   0  0  0  0  0  0  0  0  0  0  0  0
   42.7715  -22.9248   38.8664 C   0  0  0  0  0  0  0  0  0  0  0  0
   41.5512  -22.6563   39.4544 C   0  0  0  0  0  0  0  0  0  0  0  0
  2  1  1  0  0  0
  2  3  1  0  0  0
  3  4  1  0  0  0
  4  5  1  0  0  0
  5  6  1  0  0  0
  6  7  1  0  0  0
  7  8  1  0  0  0
  8  9  1  0  0  0
  9 10  2  0  0  0
 10 11  1  0  0  0
 11 12  1  0  0  0
 11 13  2  0  0  0
 13 14  1  0  0  0
 14 15  2  0  0  0
  6 16  1  0  0  0
 16 17  1  0  0  0
 17 18  1  0  0  0
 18 19  1  0  0  0
 19 20  1  0  0  0
 19 23  1  0  0  0
 23 24  3  0  0  0
 24 25  1  0  0  0
 25 26  2  0  0  0
 26 27  1  0  0  0
 27 28  2  0  0  0
 28 29  1  0  0  0
 29 30  2  0  0  0
 16  2  1  0  0  0
 30 25  1  0  0  0
 19  2  1  0  0  0
 15  5  1  0  0  0
 15  9  1  0  0  0
 12 21  1  0  0  0
 20 22  1  0  0  0
M  END
> <minimizedAffinity>
-4.31330

> <CNNscore>
0.5730392933

> <CNNaffinity>
4.8478136063

> <CNN_VS>
2.7779877186

> <CNNaffinity_variance>
0.0331261456

$$$$
[H]Oc1c([H])c([H])c2c(c1[H])C([H])([H])C([H])([H])[C@]1([H])[C@]2([H])C([H])([H])C([H])([H])[C@]2(C([H])([H])[H])[C@@](C#Cc3c([H])c([H])c([H])c([H])c3[H])(O[H])C([H])([H])C([H])([H])[C@]21[H]


 30 34  0  0  0  0  0  0  0  0999 V2000
   37.8073  -22.0655   41.0828 C   0  0  0  0  0  0  0  0  0  0  0  0
   38.1412  -21.7471   39.6467 C   0  0  0  0  0  0  0  0  0  0  0  0
   37.1802  -20.7700   39.0756 C   0  0  0  0  0  0  0  0  0  0  0  0
   35.7969  -21.2964   39.2717 C   0  0  0  0  0  0  0  0  0  0  0  0
   35.6142  -22.6501   38.6973 C   0  0  0  0  0  0  0  0  0  0  0  0
   36.7374  -23.6129   38.9750 C   0  0  0  0  0  0  0  0  0  0  0  0
   36.5477  -24.7759   37.9907 C   0  0  0  0  0  0  0  0  0  0  0  0
   35.2592  -25.4968   38.2170 C   0  0  0  0  0  0  0  0  0  0  0  0
   34.2182  -24.6503   38.8540 C   0  0  0  0  0  0  0  0  0  0  0  0
   33.0399  -25.3054   39.2162 C   0  0  0  0  0  0  0  0  0  0  0  0
   32.0079  -24.6124   39.8152 C   0  0  0  0  0  0  0  0  0  0  0  0
   30.8156  -25.2420   40.1892 O   0  0  0  0  0  0  0  0  0  0  0  0
   32.1470  -23.2595   40.0563 C   0  0  0  0  0  0  0  0  0  0  0  0
   33.3352  -22.6221   39.6859 C   0  0  0  0  0  0  0  0  0  0  0  0
   34.3634  -23.3057   39.0906 C   0  0  0  0  0  0  0  0  0  0  0  0
   38.0678  -22.9911   38.7684 C   0  0  0  0  0  0  0  0  0  0  0  0
   39.2223  -23.7811   39.2600 C   0  0  0  0  0  0  0  0  0  0  0  0
   40.2657  -22.7431   39.6198 C   0  0  0  0  0  0  0  0  0  0  0  0
   39.5749  -21.3895   39.5562 C   0  0  0  0  0  0  0  0  0  0  0  0
   40.0288  -20.6311   40.6098 O   0  0  0  0  0  0  0  0  0  0  0  0
   30.0576  -25.2797   39.5127 H   0  0  0  0  0  0  0  0  0  0  0  0
   40.6264  -21.1319   41.1965 H   0  0  0  0  0  0  0  0  0  0  0  0
   39.8106  -20.7435   38.2600 C   0  0  0  0  0  0  0  0  0  0  0  0
   40.0215  -20.2175   37.2100 C   0  0  0  0  0  0  0  0  0  0  0  0
   40.2955  -19.5980   35.9428 C   0  0  0  0  0  0  0  0  0  0  0  0
   41.5756  -19.1640   35.6155 C   0  0  0  0  0  0  0  0  0  0  0  0
   41.8328  -18.5703   34.3981 C   0  0  0  0  0  0  0  0  0  0  0  0
   40.8373  -18.3845   33.4629 C   0  0  0  0  0  0  0  0  0  0  0  0
   39.5661  -18.8156   33.7878 C   0  0  0  0  0  0  0  0  0  0  0  0
   39.3194  -19.4090   35.0101 C   0  0  0  0  0  0  0  0  0  0  0  0
  2  1  1  0  0  0
  2  3  1  0  0  0
  3  4  1  0  0  0
  4  5  1  0  0  0
  5  6  1  0  0  0
  6  7  1  0  0  0
  7  8  1  0  0  0
  8  9  1  0  0  0
  9 10  2  0  0  0
 10 11  1  0  0  0
 11 12  1  0  0  0
 11 13  2  0  0  0
 13 14  1  0  0  0
 14 15  2  0  0  0
  6 16  1  0  0  0
 16 17  1  0  0  0
 17 18  1  0  0  0
 18 19  1  0  0  0
 19 20  1  0  0  0
 19 23  1  0  0  0
 23 24  3  0  0  0
 24 25  1  0  0  0
 25 26  2  0  0  0
 26 27  1  0  0  0
 27 28  2  0  0  0
 28 29  1  0  0  0
 29 30  2  0  0  0
 16  2  1  0  0  0
 30 25  1  0  0  0
 19  2  1  0  0  0
 15  5  1  0  0  0
 15  9  1  0  0  0
 12 21  1  0  0  0
 20 22  1  0  0  0
M  END
> <minimizedAffinity>
-3.44332

> <CNNscore>
0.5586526990

> <CNNaffinity>
5.0452790260

> <CNN_VS>
2.8185586929

> <CNNaffinity_variance>
0.9858771563

$$$$
[H]Oc1c([H])c([H])c2c(c1[H])C([H])([H])C([H])([H])[C@]1([H])[C@]2([H])C([H])([H])C([H])([H])[C@]2(C([H])([H])[H])[C@@](C#Cc3c([H])c([H])c([H])c([H])c3[H])(O[H])C([H])([H])C([H])([H])[C@]21[H]


 30 34  0  0  0  0  0  0  0  0999 V2000
   36.7205  -23.3359   37.5169 C   0  0  0  0  0  0  0  0  0  0  0  0
   38.1320  -23.3602   38.0482 C   0  0  0  0  0  0  0  0  0  0  0  0
   38.4515  -22.1095   38.7817 C   0  0  0  0  0  0  0  0  0  0  0  0
   38.1625  -20.9492   37.8876 C   0  0  0  0  0  0  0  0  0  0  0  0
   38.8833  -21.0304   36.5955 C   0  0  0  0  0  0  0  0  0  0  0  0
   38.8700  -22.3887   35.9471 C   0  0  0  0  0  0  0  0  0  0  0  0
   39.9684  -22.3539   34.8749 C   0  0  0  0  0  0  0  0  0  0  0  0
   39.6865  -21.3378   33.8169 C   0  0  0  0  0  0  0  0  0  0  0  0
   38.8245  -20.2242   34.2888 C   0  0  0  0  0  0  0  0  0  0  0  0
   38.4133  -19.3173   33.3106 C   0  0  0  0  0  0  0  0  0  0  0  0
   37.6100  -18.2452   33.6414 C   0  0  0  0  0  0  0  0  0  0  0  0
   37.1822  -17.3202   32.6827 O   0  0  0  0  0  0  0  0  0  0  0  0
   37.2121  -18.0727   34.9528 C   0  0  0  0  0  0  0  0  0  0  0  0
   37.6349  -18.9924   35.9175 C   0  0  0  0  0  0  0  0  0  0  0  0
   38.4329  -20.0589   35.5944 C   0  0  0  0  0  0  0  0  0  0  0  0
   39.1506  -23.4728   36.9194 C   0  0  0  0  0  0  0  0  0  0  0  0
   38.9079  -24.8494   36.4247 C   0  0  0  0  0  0  0  0  0  0  0  0
   38.5423  -25.6386   37.6653 C   0  0  0  0  0  0  0  0  0  0  0  0
   38.3453  -24.6271   38.7839 C   0  0  0  0  0  0  0  0  0  0  0  0
   37.2631  -25.0269   39.5325 O   0  0  0  0  0  0  0  0  0  0  0  0
   37.7625  -16.5039   32.5078 H   0  0  0  0  0  0  0  0  0  0  0  0
   36.8226  -25.8124   39.1567 H   0  0  0  0  0  0  0  0  0  0  0  0
   39.5645  -24.4956   39.5897 C   0  0  0  0  0  0  0  0  0  0  0  0
   40.5660  -24.3843   40.2285 C   0  0  0  0  0  0  0  0  0  0  0  0
   41.7783  -24.2310   40.9844 C   0  0  0  0  0  0  0  0  0  0  0  0
   42.4748  -23.0271   40.9916 C   0  0  0  0  0  0  0  0  0  0  0  0
   43.6375  -22.8857   41.7188 C   0  0  0  0  0  0  0  0  0  0  0  0
   44.1526  -23.9254   42.4629 C   0  0  0  0  0  0  0  0  0  0  0  0
   43.4609  -25.1209   42.4558 C   0  0  0  0  0  0  0  0  0  0  0  0
   42.2973  -25.2519   41.7240 C   0  0  0  0  0  0  0  0  0  0  0  0
  2  1  1  0  0  0
  2  3  1  0  0  0
  3  4  1  0  0  0
  4  5  1  0  0  0
  5  6  1  0  0  0
  6  7  1  0  0  0
  7  8  1  0  0  0
  8  9  1  0  0  0
  9 10  2  0  0  0
 10 11  1  0  0  0
 11 12  1  0  0  0
 11 13  2  0  0  0
 13 14  1  0  0  0
 14 15  2  0  0  0
  6 16  1  0  0  0
 16 17  1  0  0  0
 17 18  1  0  0  0
 18 19  1  0  0  0
 19 20  1  0  0  0
 19 23  1  0  0  0
 23 24  3  0  0  0
 24 25  1  0  0  0
 25 26  2  0  0  0
 26 27  1  0  0  0
 27 28  2  0  0  0
 28 29  1  0  0  0
 29 30  2  0  0  0
 16  2  1  0  0  0
 30 25  1  0  0  0
 19  2  1  0  0  0
 15  5  1  0  0  0
 15  9  1  0  0  0
 12 21  1  0  0  0
 20 22  1  0  0  0
M  END
> <minimizedAffinity>
-3.03003

> <CNNscore>
0.5371703506

> <CNNaffinity>
4.8261680603

> <CNN_VS>
2.5924744606

> <CNNaffinity_variance>
0.2713162303

$$$$
[H]Oc1c([H])c([H])c2c(c1[H])C([H])([H])C([H])([H])[C@]1([H])[C@]2([H])C([H])([H])C([H])([H])[C@]2(C([H])([H])[H])[C@@](C#Cc3c([H])c([H])c([H])c([H])c3[H])(O[H])C([H])([H])C([H])([H])[C@]21[H]


 30 34  0  0  0  0  0  0  0  0999 V2000
   36.2341  -20.6310   39.7616 C   0  0  0  0  0  0  0  0  0  0  0  0
   37.0261  -21.4695   38.7896 C   0  0  0  0  0  0  0  0  0  0  0  0
   37.4713  -20.6645   37.6242 C   0  0  0  0  0  0  0  0  0  0  0  0
   36.2758  -20.0058   37.0192 C   0  0  0  0  0  0  0  0  0  0  0  0
   35.2167  -20.9737   36.6488 C   0  0  0  0  0  0  0  0  0  0  0  0
   34.9404  -22.0354   37.6794 C   0  0  0  0  0  0  0  0  0  0  0  0
   34.1362  -23.1250   36.9559 C   0  0  0  0  0  0  0  0  0  0  0  0
   32.8230  -22.6152   36.4591 C   0  0  0  0  0  0  0  0  0  0  0  0
   32.8181  -21.1504   36.2131 C   0  0  0  0  0  0  0  0  0  0  0  0
   31.5819  -20.5941   35.8803 C   0  0  0  0  0  0  0  0  0  0  0  0
   31.4656  -19.2418   35.6315 C   0  0  0  0  0  0  0  0  0  0  0  0
   30.2400  -18.6560   35.2959 O   0  0  0  0  0  0  0  0  0  0  0  0
   32.5847  -18.4364   35.7139 C   0  0  0  0  0  0  0  0  0  0  0  0
   33.8137  -19.0134   36.0487 C   0  0  0  0  0  0  0  0  0  0  0  0
   33.9348  -20.3559   36.2968 C   0  0  0  0  0  0  0  0  0  0  0  0
   36.1893  -22.6148   38.2308 C   0  0  0  0  0  0  0  0  0  0  0  0
   36.0172  -23.4782   39.4238 C   0  0  0  0  0  0  0  0  0  0  0  0
   37.3168  -23.3307   40.1887 C   0  0  0  0  0  0  0  0  0  0  0  0
   38.0832  -22.1931   39.5317 C   0  0  0  0  0  0  0  0  0  0  0  0
   38.6756  -21.4501   40.5258 O   0  0  0  0  0  0  0  0  0  0  0  0
   29.9860  -18.5992   34.3131 H   0  0  0  0  0  0  0  0  0  0  0  0
   38.4284  -21.7603   41.4174 H   0  0  0  0  0  0  0  0  0  0  0  0
   39.0576  -22.7102   38.5641 C   0  0  0  0  0  0  0  0  0  0  0  0
   39.8636  -23.1184   37.7848 C   0  0  0  0  0  0  0  0  0  0  0  0
   40.8511  -23.6096   36.8639 C   0  0  0  0  0  0  0  0  0  0  0  0
   42.2045  -23.5947   37.1842 C   0  0  0  0  0  0  0  0  0  0  0  0
   43.1477  -24.0675   36.2966 C   0  0  0  0  0  0  0  0  0  0  0  0
   42.7889  -24.5704   35.0644 C   0  0  0  0  0  0  0  0  0  0  0  0
   41.4450  -24.5852   34.7464 C   0  0  0  0  0  0  0  0  0  0  0  0
   40.5084  -24.1092   35.6427 C   0  0  0  0  0  0  0  0  0  0  0  0
  2  1  1  0  0  0
  2  3  1  0  0  0
  3  4  1  0  0  0
  4  5  1  0  0  0
  5  6  1  0  0  0
  6  7  1  0  0  0
  7  8  1  0  0  0
  8  9  1  0  0  0
  9 10  2  0  0  0
 10 11  1  0  0  0
 11 12  1  0  0  0
 11 13  2  0  0  0
 13 14  1  0  0  0
 14 15  2  0  0  0
  6 16  1  0  0  0
 16 17  1  0  0  0
 17 18  1  0  0  0
 18 19  1  0  0  0
 19 20  1  0  0  0
 19 23  1  0  0  0
 23 24  3  0  0  0
 24 25  1  0  0  0
 25 26  2  0  0  0
 26 27  1  0  0  0
 27 28  2  0  0  0
 28 29  1  0  0  0
 29 30  2  0  0  0
 16  2  1  0  0  0
 30 25  1  0  0  0
 19  2  1  0  0  0
 15  5  1  0  0  0
 15  9  1  0  0  0
 12 21  1  0  0  0
 20 22  1  0  0  0
M  END
> <minimizedAffinity>
-3.87237

> <CNNscore>
0.5335753560

> <CNNaffinity>
4.9293074608

> <CNN_VS>
2.6301569939

> <CNNaffinity_variance>
0.2083776444

$$$$
[H]Oc1c([H])c([H])c2c(c1[H])C([H])([H])C([H])([H])[C@]1([H])[C@]2([H])C([H])([H])C([H])([H])[C@]2(C([H])([H])[H])[C@@](C#Cc3c([H])c([H])c([H])c([H])c3[H])(O[H])C([H])([H])C([H])([H])[C@]21[H]


 30 34  0  0  0  0  0  0  0  0999 V2000
   34.4098  -17.7338   35.7008 C   0  0  0  0  0  0  0  0  0  0  0  0
   35.8629  -17.7089   36.1046 C   0  0  0  0  0  0  0  0  0  0  0  0
   36.0098  -17.5421   37.5726 C   0  0  0  0  0  0  0  0  0  0  0  0
   35.2459  -16.3291   37.9901 C   0  0  0  0  0  0  0  0  0  0  0  0
   35.6591  -15.1121   37.2526 C   0  0  0  0  0  0  0  0  0  0  0  0
   35.8467  -15.3023   35.7713 C   0  0  0  0  0  0  0  0  0  0  0  0
   36.6349  -14.0772   35.2863 C   0  0  0  0  0  0  0  0  0  0  0  0
   35.8779  -12.8062   35.4933 C   0  0  0  0  0  0  0  0  0  0  0  0
   34.8888  -12.8866   36.5983 C   0  0  0  0  0  0  0  0  0  0  0  0
   34.0553  -11.7772   36.7500 C   0  0  0  0  0  0  0  0  0  0  0  0
   33.1007  -11.7481   37.7460 C   0  0  0  0  0  0  0  0  0  0  0  0
   32.2514  -10.6501   37.9222 O   0  0  0  0  0  0  0  0  0  0  0  0
   32.9728  -12.8283   38.5972 C   0  0  0  0  0  0  0  0  0  0  0  0
   33.8175  -13.9299   38.4283 C   0  0  0  0  0  0  0  0  0  0  0  0
   34.7673  -13.9639   37.4408 C   0  0  0  0  0  0  0  0  0  0  0  0
   36.6007  -16.5408   35.4599 C   0  0  0  0  0  0  0  0  0  0  0  0
   36.6110  -16.9369   34.0311 C   0  0  0  0  0  0  0  0  0  0  0  0
   36.7412  -18.4462   34.0574 C   0  0  0  0  0  0  0  0  0  0  0  0
   36.5474  -18.8758   35.5034 C   0  0  0  0  0  0  0  0  0  0  0  0
   35.7952  -20.0272   35.5073 O   0  0  0  0  0  0  0  0  0  0  0  0
   32.5526   -9.9021   38.5414 H   0  0  0  0  0  0  0  0  0  0  0  0
   35.4959  -20.2772   34.6128 H   0  0  0  0  0  0  0  0  0  0  0  0
   37.8407  -19.0508   36.1740 C   0  0  0  0  0  0  0  0  0  0  0  0
   38.9009  -19.1958   36.7017 C   0  0  0  0  0  0  0  0  0  0  0  0
   40.1882  -19.3575   37.3193 C   0  0  0  0  0  0  0  0  0  0  0  0
   40.3726  -20.2396   38.3786 C   0  0  0  0  0  0  0  0  0  0  0  0
   41.6101  -20.3907   38.9674 C   0  0  0  0  0  0  0  0  0  0  0  0
   42.7067  -19.6779   38.5322 C   0  0  0  0  0  0  0  0  0  0  0  0
   42.5235  -18.8019   37.4802 C   0  0  0  0  0  0  0  0  0  0  0  0
   41.2798  -18.6581   36.8976 C   0  0  0  0  0  0  0  0  0  0  0  0
  2  1  1  0  0  0
  2  3  1  0  0  0
  3  4  1  0  0  0
  4  5  1  0  0  0
  5  6  1  0  0  0
  6  7  1  0  0  0
  7  8  1  0  0  0
  8  9  1  0  0  0
  9 10  2  0  0  0
 10 11  1  0  0  0
 11 12  1  0  0  0
 11 13  2  0  0  0
 13 14  1  0  0  0
 14 15  2  0  0  0
  6 16  1  0  0  0
 16 17  1  0  0  0
 17 18  1  0  0  0
 18 19  1  0  0  0
 19 20  1  0  0  0
 19 23  1  0  0  0
 23 24  3  0  0  0
 24 25  1  0  0  0
 25 26  2  0  0  0
 26 27  1  0  0  0
 27 28  2  0  0  0
 28 29  1  0  0  0
 29 30  2  0  0  0
 16  2  1  0  0  0
 30 25  1  0  0  0
 19  2  1  0  0  0
 15  5  1  0  0  0
 15  9  1  0  0  0
 12 21  1  0  0  0
 20 22  1  0  0  0
M  END
> <minimizedAffinity>
-4.09988

> <CNNscore>
0.5280047059

> <CNNaffinity>
5.5215163231

> <CNN_VS>
2.9153866768

> <CNNaffinity_variance>
0.0625620633

$$$$
[H]Oc1c([H])c([H])c2c(c1[H])C([H])([H])C([H])([H])[C@]1([H])[C@]2([H])C([H])([H])C([H])([H])[C@]2(C([H])([H])[H])[C@@](C#Cc3c([H])c([H])c([H])c([H])c3[H])(O[H])C([H])([H])C([H])([H])[C@]21[H]


 30 34  0  0  0  0  0  0  0  0999 V2000
   35.6173  -13.3425   36.0670 C   0  0  0  0  0  0  0  0  0  0  0  0
   34.4531  -13.8041   36.9078 C   0  0  0  0  0  0  0  0  0  0  0  0
   34.9180  -14.4390   38.1669 C   0  0  0  0  0  0  0  0  0  0  0  0
   35.8820  -15.5255   37.8214 C   0  0  0  0  0  0  0  0  0  0  0  0
   35.3107  -16.5182   36.8813 C   0  0  0  0  0  0  0  0  0  0  0  0
   34.5330  -15.9301   35.7345 C   0  0  0  0  0  0  0  0  0  0  0  0
   33.7205  -17.0887   35.1390 C   0  0  0  0  0  0  0  0  0  0  0  0
   34.5990  -18.1663   34.5926 C   0  0  0  0  0  0  0  0  0  0  0  0
   35.9365  -18.2148   35.2368 C   0  0  0  0  0  0  0  0  0  0  0  0
   36.8495  -19.1091   34.6753 C   0  0  0  0  0  0  0  0  0  0  0  0
   38.1209  -19.2332   35.1970 C   0  0  0  0  0  0  0  0  0  0  0  0
   39.0572  -20.1209   34.6555 O   0  0  0  0  0  0  0  0  0  0  0  0
   38.4882  -18.4639   36.2838 C   0  0  0  0  0  0  0  0  0  0  0  0
   37.5588  -17.5742   36.8313 C   0  0  0  0  0  0  0  0  0  0  0  0
   36.2947  -17.4469   36.3171 C   0  0  0  0  0  0  0  0  0  0  0  0
   33.6183  -14.8501   36.1776 C   0  0  0  0  0  0  0  0  0  0  0  0
   33.0066  -14.0487   35.0904 C   0  0  0  0  0  0  0  0  0  0  0  0
   32.7741  -12.6856   35.7096 C   0  0  0  0  0  0  0  0  0  0  0  0
   33.4923  -12.6869   37.0503 C   0  0  0  0  0  0  0  0  0  0  0  0
   34.0861  -11.4575   37.2153 O   0  0  0  0  0  0  0  0  0  0  0  0
   39.0905  -21.0689   35.0213 H   0  0  0  0  0  0  0  0  0  0  0  0
   33.9823  -10.8875   36.4300 H   0  0  0  0  0  0  0  0  0  0  0  0
   32.5639  -13.0100   38.1397 C   0  0  0  0  0  0  0  0  0  0  0  0
   31.7964  -13.2801   39.0123 C   0  0  0  0  0  0  0  0  0  0  0  0
   30.8671  -13.6265   40.0520 C   0  0  0  0  0  0  0  0  0  0  0  0
   30.0144  -14.7174   39.9212 C   0  0  0  0  0  0  0  0  0  0  0  0
   29.1248  -15.0453   40.9222 C   0  0  0  0  0  0  0  0  0  0  0  0
   29.0458  -14.3093   42.0850 C   0  0  0  0  0  0  0  0  0  0  0  0
   29.8926  -13.2260   42.2149 C   0  0  0  0  0  0  0  0  0  0  0  0
   30.7799  -12.9063   41.2063 C   0  0  0  0  0  0  0  0  0  0  0  0
  2  1  1  0  0  0
  2  3  1  0  0  0
  3  4  1  0  0  0
  4  5  1  0  0  0
  5  6  1  0  0  0
  6  7  1  0  0  0
  7  8  1  0  0  0
  8  9  1  0  0  0
  9 10  2  0  0  0
 10 11  1  0  0  0
 11 12  1  0  0  0
 11 13  2  0  0  0
 13 14  1  0  0  0
 14 15  2  0  0  0
  6 16  1  0  0  0
 16 17  1  0  0  0
 17 18  1  0  0  0
 18 19  1  0  0  0
 19 20  1  0  0  0
 19 23  1  0  0  0
 23 24  3  0  0  0
 24 25  1  0  0  0
 25 26  2  0  0  0
 26 27  1  0  0  0
 27 28  2  0  0  0
 28 29  1  0  0  0
 29 30  2  0  0  0
 16  2  1  0  0  0
 30 25  1  0  0  0
 19  2  1  0  0  0
 15  5  1  0  0  0
 15  9  1  0  0  0
 12 21  1  0  0  0
 20 22  1  0  0  0
M  END
> <minimizedAffinity>
-5.33993

> <CNNscore>
0.5201200247

> <CNNaffinity>
5.7705183029

> <CNN_VS>
3.0013620853

> <CNNaffinity_variance>
0.0879517868

$$$$
[H]Oc1c([H])c([H])c2c(c1[H])C([H])([H])C([H])([H])[C@]1([H])[C@]2([H])C([H])([H])C([H])([H])[C@]2(C([H])([H])[H])[C@@](C#Cc3c([H])c([H])c([H])c([H])c3[H])(O[H])C([H])([H])C([H])([H])[C@]21[H]


 30 34  0  0  0  0  0  0  0  0999 V2000
   39.9423  -17.7782   34.6850 C   0  0  0  0  0  0  0  0  0  0  0  0
   40.3296  -19.2330   34.7789 C   0  0  0  0  0  0  0  0  0  0  0  0
   39.6839  -20.0312   33.7064 C   0  0  0  0  0  0  0  0  0  0  0  0
   38.2109  -19.7934   33.7608 C   0  0  0  0  0  0  0  0  0  0  0  0
   37.6333  -20.0899   35.0928 C   0  0  0  0  0  0  0  0  0  0  0  0
   38.4333  -19.5746   36.2590 C   0  0  0  0  0  0  0  0  0  0  0  0
   37.8975  -20.3110   37.4951 C   0  0  0  0  0  0  0  0  0  0  0  0
   36.4592  -20.0004   37.7524 C   0  0  0  0  0  0  0  0  0  0  0  0
   35.7198  -19.5935   36.5303 C   0  0  0  0  0  0  0  0  0  0  0  0
   34.4086  -19.1583   36.7298 C   0  0  0  0  0  0  0  0  0  0  0  0
   33.6326  -18.7573   35.6615 C   0  0  0  0  0  0  0  0  0  0  0  0
   32.3154  -18.3163   35.8307 O   0  0  0  0  0  0  0  0  0  0  0  0
   34.1624  -18.7887   34.3863 C   0  0  0  0  0  0  0  0  0  0  0  0
   35.4779  -19.2279   34.2080 C   0  0  0  0  0  0  0  0  0  0  0  0
   36.2530  -19.6273   35.2655 C   0  0  0  0  0  0  0  0  0  0  0  0
   39.8832  -19.8443   36.1023 C   0  0  0  0  0  0  0  0  0  0  0  0
   40.7670  -19.1533   37.0719 C   0  0  0  0  0  0  0  0  0  0  0  0
   42.0728  -18.9653   36.3267 C   0  0  0  0  0  0  0  0  0  0  0  0
   41.8036  -19.3312   34.8752 C   0  0  0  0  0  0  0  0  0  0  0  0
   42.4760  -18.4337   34.0792 O   0  0  0  0  0  0  0  0  0  0  0  0
   31.5676  -19.0037   35.7874 H   0  0  0  0  0  0  0  0  0  0  0  0
   42.9127  -17.7324   34.5986 H   0  0  0  0  0  0  0  0  0  0  0  0
   42.1943  -20.7196   34.6055 C   0  0  0  0  0  0  0  0  0  0  0  0
   42.5224  -21.8487   34.4031 C   0  0  0  0  0  0  0  0  0  0  0  0
   42.9144  -23.2134   34.1829 C   0  0  0  0  0  0  0  0  0  0  0  0
   44.2358  -23.6174   34.3419 C   0  0  0  0  0  0  0  0  0  0  0  0
   44.6062  -24.9283   34.1294 C   0  0  0  0  0  0  0  0  0  0  0  0
   43.6874  -25.8845   33.7533 C   0  0  0  0  0  0  0  0  0  0  0  0
   42.3752  -25.4833   33.5955 C   0  0  0  0  0  0  0  0  0  0  0  0
   42.0148  -24.1678   33.8109 C   0  0  0  0  0  0  0  0  0  0  0  0
  2  1  1  0  0  0
  2  3  1  0  0  0
  3  4  1  0  0  0
  4  5  1  0  0  0
  5  6  1  0  0  0
  6  7  1  0  0  0
  7  8  1  0  0  0
  8  9  1  0  0  0
  9 10  2  0  0  0
 10 11  1  0  0  0
 11 12  1  0  0  0
 11 13  2  0  0  0
 13 14  1  0  0  0
 14 15  2  0  0  0
  6 16  1  0  0  0
 16 17  1  0  0  0
 17 18  1  0  0  0
 18 19  1  0  0  0
 19 20  1  0  0  0
 19 23  1  0  0  0
 23 24  3  0  0  0
 24 25  1  0  0  0
 25 26  2  0  0  0
 26 27  1  0  0  0
 27 28  2  0  0  0
 28 29  1  0  0  0
 29 30  2  0  0  0
 16  2  1  0  0  0
 30 25  1  0  0  0
 19  2  1  0  0  0
 15  5  1  0  0  0
 15  9  1  0  0  0
 12 21  1  0  0  0
 20 22  1  0  0  0
M  END
> <minimizedAffinity>
-3.79419

> <CNNscore>
0.5153139234

> <CNNaffinity>
5.0204634666

> <CNN_VS>
2.5871148109

> <CNNaffinity_variance>
0.0839603394

$$$$
[H]Oc1c([H])c([H])c2c(c1[H])C([H])([H])C([H])([H])[C@]1([H])[C@]2([H])C([H])([H])C([H])([H])[C@]2(C([H])([H])[H])[C@@](C#Cc3c([H])c([H])c([H])c([H])c3[H])(O[H])C([H])([H])C([H])([H])[C@]21[H]


 30 34  0  0  0  0  0  0  0  0999 V2000
   33.5709  -17.5693   33.4958 C   0  0  0  0  0  0  0  0  0  0  0  0
   33.1948  -18.5159   34.6084 C   0  0  0  0  0  0  0  0  0  0  0  0
   32.4459  -17.8137   35.6810 C   0  0  0  0  0  0  0  0  0  0  0  0
   33.2527  -16.6412   36.1322 C   0  0  0  0  0  0  0  0  0  0  0  0
   34.6167  -17.0208   36.5694 C   0  0  0  0  0  0  0  0  0  0  0  0
   35.3184  -18.0050   35.6725 C   0  0  0  0  0  0  0  0  0  0  0  0
   36.4992  -18.5503   36.4884 C   0  0  0  0  0  0  0  0  0  0  0  0
   37.4759  -17.4780   36.8457 C   0  0  0  0  0  0  0  0  0  0  0  0
   36.8667  -16.1245   36.8988 C   0  0  0  0  0  0  0  0  0  0  0  0
   37.7551  -15.0652   37.0916 C   0  0  0  0  0  0  0  0  0  0  0  0
   37.2941  -13.7662   37.1563 C   0  0  0  0  0  0  0  0  0  0  0  0
   38.1605  -12.6845   37.3488 O   0  0  0  0  0  0  0  0  0  0  0  0
   35.9414  -13.5174   37.0286 C   0  0  0  0  0  0  0  0  0  0  0  0
   35.0683  -14.5926   36.8360 C   0  0  0  0  0  0  0  0  0  0  0  0
   35.5209  -15.8847   36.7710 C   0  0  0  0  0  0  0  0  0  0  0  0
   34.4297  -19.1208   35.2668 C   0  0  0  0  0  0  0  0  0  0  0  0
   34.9550  -19.9926   34.1886 C   0  0  0  0  0  0  0  0  0  0  0  0
   33.7180  -20.5055   33.4799 C   0  0  0  0  0  0  0  0  0  0  0  0
   32.5419  -19.7084   34.0227 C   0  0  0  0  0  0  0  0  0  0  0  0
   31.7002  -19.4249   32.9727 O   0  0  0  0  0  0  0  0  0  0  0  0
   38.3608  -12.3907   38.3012 H   0  0  0  0  0  0  0  0  0  0  0  0
   32.0605  -19.7259   32.1172 H   0  0  0  0  0  0  0  0  0  0  0  0
   31.8658  -20.4422   35.0986 C   0  0  0  0  0  0  0  0  0  0  0  0
   31.3029  -21.0455   35.9604 C   0  0  0  0  0  0  0  0  0  0  0  0
   30.6220  -21.7908   36.9829 C   0  0  0  0  0  0  0  0  0  0  0  0
   31.3115  -22.6647   37.8167 C   0  0  0  0  0  0  0  0  0  0  0  0
   30.6530  -23.3773   38.7962 C   0  0  0  0  0  0  0  0  0  0  0  0
   29.2935  -23.2525   38.9867 C   0  0  0  0  0  0  0  0  0  0  0  0
   28.6088  -22.3846   38.1587 C   0  0  0  0  0  0  0  0  0  0  0  0
   29.2781  -21.6757   37.1807 C   0  0  0  0  0  0  0  0  0  0  0  0
  2  1  1  0  0  0
  2  3  1  0  0  0
  3  4  1  0  0  0
  4  5  1  0  0  0
  5  6  1  0  0  0
  6  7  1  0  0  0
  7  8  1  0  0  0
  8  9  1  0  0  0
  9 10  2  0  0  0
 10 11  1  0  0  0
 11 12  1  0  0  0
 11 13  2  0  0  0
 13 14  1  0  0  0
 14 15  2  0  0  0
  6 16  1  0  0  0
 16 17  1  0  0  0
 17 18  1  0  0  0
 18 19  1  0  0  0
 19 20  1  0  0  0
 19 23  1  0  0  0
 23 24  3  0  0  0
 24 25  1  0  0  0
 25 26  2  0  0  0
 26 27  1  0  0  0
 27 28  2  0  0  0
 28 29  1  0  0  0
 29 30  2  0  0  0
 16  2  1  0  0  0
 30 25  1  0  0  0
 19  2  1  0  0  0
 15  5  1  0  0  0
 15  9  1  0  0  0
 12 21  1  0  0  0
 20 22  1  0  0  0
M  END
> <minimizedAffinity>
-3.98733

> <CNNscore>
0.5128270388

> <CNNaffinity>
5.3555998802

> <CNN_VS>
2.7464964390

> <CNNaffinity_variance>
0.1467943788

$$$$
[H]O[C@]1([H])C([H])([H])C2=C([H])C([H])([H])[C@@]3([H])[C@]4([H])C([H])([H])C([H])([H])[C@]([H])(O[H])[C@@]4(C([H])([H])[H])C([H])([H])C([H])([H])[C@]3([H])[C@@]2(C([H])([H])[H])C([H])([H])C1([H])[H]


 23 26  0  0  0  0  0  0  0  0999 V2000
   35.7437  -19.5096   35.2613 C   0  0  0  0  0  0  0  0  0  0  0  0
   34.8353  -18.9478   36.2975 C   0  0  0  0  0  0  0  0  0  0  0  0
   34.4946  -19.8845   37.3921 C   0  0  0  0  0  0  0  0  0  0  0  0
   33.7527  -21.0658   36.7820 C   0  0  0  0  0  0  0  0  0  0  0  0
   32.4954  -20.5294   36.1788 C   0  0  0  0  0  0  0  0  0  0  0  0
   32.7264  -19.5123   35.0869 C   0  0  0  0  0  0  0  0  0  0  0  0
   31.4200  -18.9793   34.6190 C   0  0  0  0  0  0  0  0  0  0  0  0
   30.2197  -19.6647   35.1505 C   0  0  0  0  0  0  0  0  0  0  0  0
   30.2120  -20.8869   35.6673 C   0  0  0  0  0  0  0  0  0  0  0  0
   28.9613  -21.4526   36.1583 C   0  0  0  0  0  0  0  0  0  0  0  0
   29.1261  -22.5274   37.1973 C   0  0  0  0  0  0  0  0  0  0  0  0
   28.9385  -23.7585   36.5684 O   0  0  0  0  0  0  0  0  0  0  0  0
   30.5380  -22.5362   37.7744 C   0  0  0  0  0  0  0  0  0  0  0  0
   31.4461  -22.7809   36.5911 C   0  0  0  0  0  0  0  0  0  0  0  0
   31.5365  -21.5839   35.7005 C   0  0  0  0  0  0  0  0  0  0  0  0
   31.8720  -22.1089   34.3258 C   0  0  0  0  0  0  0  0  0  0  0  0
   33.5273  -18.3998   35.7061 C   0  0  0  0  0  0  0  0  0  0  0  0
   34.0605  -17.3921   34.7543 C   0  0  0  0  0  0  0  0  0  0  0  0
   35.2293  -16.7783   35.5198 C   0  0  0  0  0  0  0  0  0  0  0  0
   35.4212  -17.6319   36.7647 C   0  0  0  0  0  0  0  0  0  0  0  0
   36.7436  -17.7309   37.1369 O   0  0  0  0  0  0  0  0  0  0  0  0
   27.9665  -23.7735   36.3010 H   0  0  0  0  0  0  0  0  0  0  0  0
   36.8826  -17.4219   38.0882 H   0  0  0  0  0  0  0  0  0  0  0  0
  2  1  1  0  0  0
  2  3  1  0  0  0
  3  4  1  0  0  0
  4  5  1  0  0  0
  5  6  1  0  0  0
  6  7  1  0  0  0
  7  8  1  0  0  0
  8  9  2  0  0  0
  9 10  1  0  0  0
 10 11  1  0  0  0
 11 12  1  0  0  0
 11 13  1  0  0  0
 13 14  1  0  0  0
 14 15  1  0  0  0
 15 16  1  0  0  0
  6 17  1  0  0  0
 17 18  1  0  0  0
 18 19  1  0  0  0
 19 20  1  0  0  0
 20 21  1  0  0  0
 17  2  1  0  0  0
 20  2  1  0  0  0
 15  5  1  0  0  0
 15  9  1  0  0  0
 12 22  1  0  0  0
 21 23  1  0  0  0
M  END
> <minimizedAffinity>
-5.74336

> <CNNscore>
0.7141067386

> <CNNaffinity>
4.5268735886

> <CNN_VS>
3.2326710224

> <CNNaffinity_variance>
0.2675197721

$$$$
[H]O[C@]1([H])C([H])([H])C2=C([H])C([H])([H])[C@@]3([H])[C@]4([H])C([H])([H])C([H])([H])[C@]([H])(O[H])[C@@]4(C([H])([H])[H])C([H])([H])C([H])([H])[C@]3([H])[C@@]2(C([H])([H])[H])C([H])([H])C1([H])[H]


 23 26  0  0  0  0  0  0  0  0999 V2000
   32.4527  -21.4584   34.0555 C   0  0  0  0  0  0  0  0  0  0  0  0
   32.4343  -20.8805   35.4268 C   0  0  0  0  0  0  0  0  0  0  0  0
   32.7715  -21.8383   36.5041 C   0  0  0  0  0  0  0  0  0  0  0  0
   31.7173  -22.9368   36.4992 C   0  0  0  0  0  0  0  0  0  0  0  0
   30.4067  -22.2878   36.8049 C   0  0  0  0  0  0  0  0  0  0  0  0
   29.9923  -21.2424   35.7972 C   0  0  0  0  0  0  0  0  0  0  0  0
   28.7270  -20.5992   36.2393 C   0  0  0  0  0  0  0  0  0  0  0  0
   28.0652  -21.2217   37.4087 C   0  0  0  0  0  0  0  0  0  0  0  0
   28.2797  -22.4619   37.8292 C   0  0  0  0  0  0  0  0  0  0  0  0
   27.5633  -22.9598   38.9971 C   0  0  0  0  0  0  0  0  0  0  0  0
   28.2486  -24.0881   39.7174 C   0  0  0  0  0  0  0  0  0  0  0  0
   27.6108  -25.2742   39.3534 O   0  0  0  0  0  0  0  0  0  0  0  0
   29.7069  -24.2210   39.2904 C   0  0  0  0  0  0  0  0  0  0  0  0
   29.6599  -24.4764   37.8013 C   0  0  0  0  0  0  0  0  0  0  0  0
   29.2756  -23.2506   37.0370 C   0  0  0  0  0  0  0  0  0  0  0  0
   28.6404  -23.7368   35.7572 C   0  0  0  0  0  0  0  0  0  0  0  0
   31.0924  -20.2169   35.7731 C   0  0  0  0  0  0  0  0  0  0  0  0
   30.9997  -19.2081   34.6870 C   0  0  0  0  0  0  0  0  0  0  0  0
   32.4366  -18.7119   34.5530 C   0  0  0  0  0  0  0  0  0  0  0  0
   33.2891  -19.6307   35.4156 C   0  0  0  0  0  0  0  0  0  0  0  0
   34.5430  -19.8382   34.8847 O   0  0  0  0  0  0  0  0  0  0  0  0
   26.6858  -25.2094   39.7493 H   0  0  0  0  0  0  0  0  0  0  0  0
   35.2675  -19.5818   35.5398 H   0  0  0  0  0  0  0  0  0  0  0  0
  2  1  1  0  0  0
  2  3  1  0  0  0
  3  4  1  0  0  0
  4  5  1  0  0  0
  5  6  1  0  0  0
  6  7  1  0  0  0
  7  8  1  0  0  0
  8  9  2  0  0  0
  9 10  1  0  0  0
 10 11  1  0  0  0
 11 12  1  0  0  0
 11 13  1  0  0  0
 13 14  1  0  0  0
 14 15  1  0  0  0
 15 16  1  0  0  0
  6 17  1  0  0  0
 17 18  1  0  0  0
 18 19  1  0  0  0
 19 20  1  0  0  0
 20 21  1  0  0  0
 17  2  1  0  0  0
 20  2  1  0  0  0
 15  5  1  0  0  0
 15  9  1  0  0  0
 12 22  1  0  0  0
 21 23  1  0  0  0
M  END
> <minimizedAffinity>
-4.97525

> <CNNscore>
0.6825258732

> <CNNaffinity>
4.1501107216

> <CNN_VS>
2.8325579166

> <CNNaffinity_variance>
0.2908907533

$$$$
[H]O[C@]1([H])C([H])([H])C2=C([H])C([H])([H])[C@@]3([H])[C@]4([H])C([H])([H])C([H])([H])[C@]([H])(O[H])[C@@]4(C([H])([H])[H])C([H])([H])C([H])([H])[C@]3([H])[C@@]2(C([H])([H])[H])C([H])([H])C1([H])[H]


 23 26  0  0  0  0  0  0  0  0999 V2000
   37.7408  -22.5499   37.1646 C   0  0  0  0  0  0  0  0  0  0  0  0
   37.6325  -21.1421   37.6346 C   0  0  0  0  0  0  0  0  0  0  0  0
   38.5839  -20.2041   36.9968 C   0  0  0  0  0  0  0  0  0  0  0  0
   39.9939  -20.6559   37.3517 C   0  0  0  0  0  0  0  0  0  0  0  0
   40.1237  -20.5605   38.8371 C   0  0  0  0  0  0  0  0  0  0  0  0
   39.1521  -21.4348   39.5933 C   0  0  0  0  0  0  0  0  0  0  0  0
   39.3035  -21.1994   41.0533 C   0  0  0  0  0  0  0  0  0  0  0  0
   40.4507  -20.3517   41.4512 C   0  0  0  0  0  0  0  0  0  0  0  0
   41.5187  -20.1205   40.6982 C   0  0  0  0  0  0  0  0  0  0  0  0
   42.5848  -19.2650   41.2050 C   0  0  0  0  0  0  0  0  0  0  0  0
   43.4251  -18.6153   40.1404 C   0  0  0  0  0  0  0  0  0  0  0  0
   44.6220  -19.3264   40.0510 O   0  0  0  0  0  0  0  0  0  0  0  0
   42.7574  -18.6993   38.7715 C   0  0  0  0  0  0  0  0  0  0  0  0
   42.5901  -20.1776   38.5045 C   0  0  0  0  0  0  0  0  0  0  0  0
   41.5182  -20.7801   39.3544 C   0  0  0  0  0  0  0  0  0  0  0  0
   41.8714  -22.2401   39.5018 C   0  0  0  0  0  0  0  0  0  0  0  0
   37.7753  -21.0127   39.1590 C   0  0  0  0  0  0  0  0  0  0  0  0
   36.6669  -21.8917   39.6114 C   0  0  0  0  0  0  0  0  0  0  0  0
   35.5554  -21.5888   38.6107 C   0  0  0  0  0  0  0  0  0  0  0  0
   36.1806  -20.7261   37.5244 C   0  0  0  0  0  0  0  0  0  0  0  0
   35.6410  -20.9713   36.2810 O   0  0  0  0  0  0  0  0  0  0  0  0
   45.0960  -19.1573   40.9245 H   0  0  0  0  0  0  0  0  0  0  0  0
   35.2719  -20.1275   35.8668 H   0  0  0  0  0  0  0  0  0  0  0  0
  2  1  1  0  0  0
  2  3  1  0  0  0
  3  4  1  0  0  0
  4  5  1  0  0  0
  5  6  1  0  0  0
  6  7  1  0  0  0
  7  8  1  0  0  0
  8  9  2  0  0  0
  9 10  1  0  0  0
 10 11  1  0  0  0
 11 12  1  0  0  0
 11 13  1  0  0  0
 13 14  1  0  0  0
 14 15  1  0  0  0
 15 16  1  0  0  0
  6 17  1  0  0  0
 17 18  1  0  0  0
 18 19  1  0  0  0
 19 20  1  0  0  0
 20 21  1  0  0  0
 17  2  1  0  0  0
 20  2  1  0  0  0
 15  5  1  0  0  0
 15  9  1  0  0  0
 12 22  1  0  0  0
 21 23  1  0  0  0
M  END
> <minimizedAffinity>
-4.85825

> <CNNscore>
0.6394658089

> <CNNaffinity>
4.3307938576

> <CNN_VS>
2.7693946362

> <CNNaffinity_variance>
0.0481575951

$$$$
[H]O[C@]1([H])C([H])([H])C2=C([H])C([H])([H])[C@@]3([H])[C@]4([H])C([H])([H])C([H])([H])[C@]([H])(O[H])[C@@]4(C([H])([H])[H])C([H])([H])C([H])([H])[C@]3([H])[C@@]2(C([H])([H])[H])C([H])([H])C1([H])[H]


 23 26  0  0  0  0  0  0  0  0999 V2000
   33.5230  -20.1532   34.1734 C   0  0  0  0  0  0  0  0  0  0  0  0
   33.2817  -19.4722   35.4744 C   0  0  0  0  0  0  0  0  0  0  0  0
   34.5098  -19.0879   36.2062 C   0  0  0  0  0  0  0  0  0  0  0  0
   35.2745  -20.3622   36.5370 C   0  0  0  0  0  0  0  0  0  0  0  0
   34.3994  -21.1788   37.4312 C   0  0  0  0  0  0  0  0  0  0  0  0
   33.0847  -21.5761   36.8035 C   0  0  0  0  0  0  0  0  0  0  0  0
   32.2572  -22.3043   37.8008 C   0  0  0  0  0  0  0  0  0  0  0  0
   32.9366  -22.6465   39.0713 C   0  0  0  0  0  0  0  0  0  0  0  0
   34.2523  -22.7045   39.2350 C   0  0  0  0  0  0  0  0  0  0  0  0
   34.8002  -23.0544   40.5398 C   0  0  0  0  0  0  0  0  0  0  0  0
   36.1973  -22.5551   40.7859 C   0  0  0  0  0  0  0  0  0  0  0  0
   37.0698  -23.6292   40.6085 O   0  0  0  0  0  0  0  0  0  0  0  0
   36.5972  -21.4882   39.7718 C   0  0  0  0  0  0  0  0  0  0  0  0
   36.4921  -22.1657   38.4247 C   0  0  0  0  0  0  0  0  0  0  0  0
   35.0699  -22.3879   38.0216 C   0  0  0  0  0  0  0  0  0  0  0  0
   35.0794  -23.5740   37.0883 C   0  0  0  0  0  0  0  0  0  0  0  0
   32.3940  -20.2962   36.4199 C   0  0  0  0  0  0  0  0  0  0  0  0
   31.1780  -20.4546   35.5819 C   0  0  0  0  0  0  0  0  0  0  0  0
   31.0461  -19.0938   34.9039 C   0  0  0  0  0  0  0  0  0  0  0  0
   32.3204  -18.3283   35.2285 C   0  0  0  0  0  0  0  0  0  0  0  0
   32.7153  -17.5021   34.1997 O   0  0  0  0  0  0  0  0  0  0  0  0
   36.8625  -24.2657   41.3624 H   0  0  0  0  0  0  0  0  0  0  0  0
   32.8048  -16.5451   34.5095 H   0  0  0  0  0  0  0  0  0  0  0  0
  2  1  1  0  0  0
  2  3  1  0  0  0
  3  4  1  0  0  0
  4  5  1  0  0  0
  5  6  1  0  0  0
  6  7  1  0  0  0
  7  8  1  0  0  0
  8  9  2  0  0  0
  9 10  1  0  0  0
 10 11  1  0  0  0
 11 12  1  0  0  0
 11 13  1  0  0  0
 13 14  1  0  0  0
 14 15  1  0  0  0
 15 16  1  0  0  0
  6 17  1  0  0  0
 17 18  1  0  0  0
 18 19  1  0  0  0
 19 20  1  0  0  0
 20 21  1  0  0  0
 17  2  1  0  0  0
 20  2  1  0  0  0
 15  5  1  0  0  0
 15  9  1  0  0  0
 12 22  1  0  0  0
 21 23  1  0  0  0
M  END
> <minimizedAffinity>
-4.30751

> <CNNscore>
0.6338292360

> <CNNaffinity>
4.2448034286

> <CNN_VS>
2.6904804707

> <CNNaffinity_variance>
0.1073714495

$$$$
[H]O[C@]1([H])C([H])([H])C2=C([H])C([H])([H])[C@@]3([H])[C@]4([H])C([H])([H])C([H])([H])[C@]([H])(O[H])[C@@]4(C([H])([H])[H])C([H])([H])C([H])([H])[C@]3([H])[C@@]2(C([H])([H])[H])C([H])([H])C1([H])[H]


 23 26  0  0  0  0  0  0  0  0999 V2000
   32.5366  -20.7198   34.1685 C   0  0  0  0  0  0  0  0  0  0  0  0
   32.2886  -20.1531   35.5219 C   0  0  0  0  0  0  0  0  0  0  0  0
   33.4564  -20.1935   36.4309 C   0  0  0  0  0  0  0  0  0  0  0  0
   33.8269  -21.6538   36.6506 C   0  0  0  0  0  0  0  0  0  0  0  0
   32.6587  -22.3071   37.3147 C   0  0  0  0  0  0  0  0  0  0  0  0
   31.3899  -22.2681   36.4969 C   0  0  0  0  0  0  0  0  0  0  0  0
   30.2746  -22.8612   37.2806 C   0  0  0  0  0  0  0  0  0  0  0  0
   30.6601  -23.5141   38.5526 C   0  0  0  0  0  0  0  0  0  0  0  0
   31.8834  -23.9362   38.8471 C   0  0  0  0  0  0  0  0  0  0  0  0
   32.1361  -24.5657   40.1374 C   0  0  0  0  0  0  0  0  0  0  0  0
   33.5635  -24.4850   40.6040 C   0  0  0  0  0  0  0  0  0  0  0  0
   34.1592  -25.7237   40.3653 O   0  0  0  0  0  0  0  0  0  0  0  0
   34.3552  -23.4527   39.8075 C   0  0  0  0  0  0  0  0  0  0  0  0
   34.2787  -23.9192   38.3718 C   0  0  0  0  0  0  0  0  0  0  0  0
   32.9181  -23.7099   37.7891 C   0  0  0  0  0  0  0  0  0  0  0  0
   32.7667  -24.7411   36.6976 C   0  0  0  0  0  0  0  0  0  0  0  0
   31.0992  -20.8160   36.2341 C   0  0  0  0  0  0  0  0  0  0  0  0
   30.0140  -20.5502   35.2555 C   0  0  0  0  0  0  0  0  0  0  0  0
   30.3208  -19.1345   34.7755 C   0  0  0  0  0  0  0  0  0  0  0  0
   31.6853  -18.7755   35.3452 C   0  0  0  0  0  0  0  0  0  0  0  0
   32.4147  -17.9706   34.4983 O   0  0  0  0  0  0  0  0  0  0  0  0
   33.6957  -26.3649   40.9901 H   0  0  0  0  0  0  0  0  0  0  0  0
   32.6931  -17.1133   34.9538 H   0  0  0  0  0  0  0  0  0  0  0  0
  2  1  1  0  0  0
  2  3  1  0  0  0
  3  4  1  0  0  0
  4  5  1  0  0  0
  5  6  1  0  0  0
  6  7  1  0  0  0
  7  8  1  0  0  0
  8  9  2  0  0  0
  9 10  1  0  0  0
 10 11  1  0  0  0
 11 12  1  0  0  0
 11 13  1  0  0  0
 13 14  1  0  0  0
 14 15  1  0  0  0
 15 16  1  0  0  0
  6 17  1  0  0  0
 17 18  1  0  0  0
 18 19  1  0  0  0
 19 20  1  0  0  0
 20 21  1  0  0  0
 17  2  1  0  0  0
 20  2  1  0  0  0
 15  5  1  0  0  0
 15  9  1  0  0  0
 12 22  1  0  0  0
 21 23  1  0  0  0
M  END
> <minimizedAffinity>
-4.23925

> <CNNscore>
0.6276567578

> <CNNaffinity>
4.0012712479

> <CNN_VS>
2.5114250183

> <CNNaffinity_variance>
0.2901105285

$$$$
[H]O[C@]1([H])C([H])([H])C2=C([H])C([H])([H])[C@@]3([H])[C@]4([H])C([H])([H])C([H])([H])[C@]([H])(O[H])[C@@]4(C([H])([H])[H])C([H])([H])C([H])([H])[C@]3([H])[C@@]2(C([H])([H])[H])C([H])([H])C1([H])[H]


 23 26  0  0  0  0  0  0  0  0999 V2000
   38.5535  -18.2408   35.5699 C   0  0  0  0  0  0  0  0  0  0  0  0
   38.0400  -19.6050   35.2701 C   0  0  0  0  0  0  0  0  0  0  0  0
   37.2448  -19.7048   34.0253 C   0  0  0  0  0  0  0  0  0  0  0  0
   36.0153  -18.8210   34.1844 C   0  0  0  0  0  0  0  0  0  0  0  0
   35.2232  -19.3733   35.3245 C   0  0  0  0  0  0  0  0  0  0  0  0
   35.9653  -19.3771   36.6396 C   0  0  0  0  0  0  0  0  0  0  0  0
   35.1264  -20.0244   37.6823 C   0  0  0  0  0  0  0  0  0  0  0  0
   33.7338  -20.3336   37.2850 C   0  0  0  0  0  0  0  0  0  0  0  0
   33.0903  -19.7636   36.2740 C   0  0  0  0  0  0  0  0  0  0  0  0
   31.7165  -20.1554   35.9831 C   0  0  0  0  0  0  0  0  0  0  0  0
   31.2858  -19.9179   34.5619 C   0  0  0  0  0  0  0  0  0  0  0  0
   30.5070  -18.7606   34.5418 O   0  0  0  0  0  0  0  0  0  0  0  0
   32.4815  -19.6623   33.6500 C   0  0  0  0  0  0  0  0  0  0  0  0
   33.1603  -18.4395   34.2233 C   0  0  0  0  0  0  0  0  0  0  0  0
   33.8696  -18.7439   35.5033 C   0  0  0  0  0  0  0  0  0  0  0  0
   33.9172  -17.4475   36.2746 C   0  0  0  0  0  0  0  0  0  0  0  0
   37.2100  -20.1930   36.4218 C   0  0  0  0  0  0  0  0  0  0  0  0
   38.2038  -20.1463   37.5245 C   0  0  0  0  0  0  0  0  0  0  0  0
   39.5058  -20.5405   36.8331 C   0  0  0  0  0  0  0  0  0  0  0  0
   39.2075  -20.5667   35.3413 C   0  0  0  0  0  0  0  0  0  0  0  0
   40.2844  -20.1666   34.5814 O   0  0  0  0  0  0  0  0  0  0  0  0
   29.6704  -18.9959   35.0529 H   0  0  0  0  0  0  0  0  0  0  0  0
   40.5423  -20.8729   33.9074 H   0  0  0  0  0  0  0  0  0  0  0  0
  2  1  1  0  0  0
  2  3  1  0  0  0
  3  4  1  0  0  0
  4  5  1  0  0  0
  5  6  1  0  0  0
  6  7  1  0  0  0
  7  8  1  0  0  0
  8  9  2  0  0  0
  9 10  1  0  0  0
 10 11  1  0  0  0
 11 12  1  0  0  0
 11 13  1  0  0  0
 13 14  1  0  0  0
 14 15  1  0  0  0
 15 16  1  0  0  0
  6 17  1  0  0  0
 17 18  1  0  0  0
 18 19  1  0  0  0
 19 20  1  0  0  0
 20 21  1  0  0  0
 17  2  1  0  0  0
 20  2  1  0  0  0
 15  5  1  0  0  0
 15  9  1  0  0  0
 12 22  1  0  0  0
 21 23  1  0  0  0
M  END
> <minimizedAffinity>
-5.14194

> <CNNscore>
0.5889127254

> <CNNaffinity>
4.6990108490

> <CNN_VS>
2.7673072815

> <CNNaffinity_variance>
0.1174803004

$$$$
[H]O[C@]1([H])C([H])([H])C2=C([H])C([H])([H])[C@@]3([H])[C@]4([H])C([H])([H])C([H])([H])[C@]([H])(O[H])[C@@]4(C([H])([H])[H])C([H])([H])C([H])([H])[C@]3([H])[C@@]2(C([H])([H])[H])C([H])([H])C1([H])[H]


 23 26  0  0  0  0  0  0  0  0999 V2000
   30.9838  -21.8085   37.0434 C   0  0  0  0  0  0  0  0  0  0  0  0
   32.2613  -22.4051   36.5675 C   0  0  0  0  0  0  0  0  0  0  0  0
   33.4274  -22.1429   37.4411 C   0  0  0  0  0  0  0  0  0  0  0  0
   33.6562  -20.6381   37.4757 C   0  0  0  0  0  0  0  0  0  0  0  0
   33.9761  -20.2113   36.0801 C   0  0  0  0  0  0  0  0  0  0  0  0
   32.8732  -20.4904   35.0872 C   0  0  0  0  0  0  0  0  0  0  0  0
   33.3251  -20.1123   33.7224 C   0  0  0  0  0  0  0  0  0  0  0  0
   34.6174  -19.3928   33.6505 C   0  0  0  0  0  0  0  0  0  0  0  0
   35.1829  -18.7484   34.6634 C   0  0  0  0  0  0  0  0  0  0  0  0
   36.4613  -18.0765   34.4649 C   0  0  0  0  0  0  0  0  0  0  0  0
   37.2698  -17.8871   35.7187 C   0  0  0  0  0  0  0  0  0  0  0  0
   37.1221  -16.5600   36.1230 O   0  0  0  0  0  0  0  0  0  0  0  0
   36.7483  -18.7572   36.8578 C   0  0  0  0  0  0  0  0  0  0  0  0
   35.3161  -18.3201   37.0639 C   0  0  0  0  0  0  0  0  0  0  0  0
   34.4268  -18.7825   35.9550 C   0  0  0  0  0  0  0  0  0  0  0  0
   33.2799  -17.8029   35.9016 C   0  0  0  0  0  0  0  0  0  0  0  0
   32.6220  -21.9725   35.1378 C   0  0  0  0  0  0  0  0  0  0  0  0
   31.4207  -22.4410   34.4008 C   0  0  0  0  0  0  0  0  0  0  0  0
   31.1053  -23.7768   35.0679 C   0  0  0  0  0  0  0  0  0  0  0  0
   32.0124  -23.8720   36.2858 C   0  0  0  0  0  0  0  0  0  0  0  0
   31.4149  -24.5305   37.3377 O   0  0  0  0  0  0  0  0  0  0  0  0
   37.5789  -16.0137   35.4094 H   0  0  0  0  0  0  0  0  0  0  0  0
   31.9688  -25.3185   37.6412 H   0  0  0  0  0  0  0  0  0  0  0  0
  2  1  1  0  0  0
  2  3  1  0  0  0
  3  4  1  0  0  0
  4  5  1  0  0  0
  5  6  1  0  0  0
  6  7  1  0  0  0
  7  8  1  0  0  0
  8  9  2  0  0  0
  9 10  1  0  0  0
 10 11  1  0  0  0
 11 12  1  0  0  0
 11 13  1  0  0  0
 13 14  1  0  0  0
 14 15  1  0  0  0
 15 16  1  0  0  0
  6 17  1  0  0  0
 17 18  1  0  0  0
 18 19  1  0  0  0
 19 20  1  0  0  0
 20 21  1  0  0  0
 17  2  1  0  0  0
 20  2  1  0  0  0
 15  5  1  0  0  0
 15  9  1  0  0  0
 12 22  1  0  0  0
 21 23  1  0  0  0
M  END
> <minimizedAffinity>
-5.34696

> <CNNscore>
0.5365366936

> <CNNaffinity>
4.3799476624

> <CNN_VS>
2.3500025272

> <CNNaffinity_variance>
0.2137722522

$$$$
[H]O[C@]1([H])C([H])([H])C2=C([H])C([H])([H])[C@@]3([H])[C@]4([H])C([H])([H])C([H])([H])[C@]([H])(O[H])[C@@]4(C([H])([H])[H])C([H])([H])C([H])([H])[C@]3([H])[C@@]2(C([H])([H])[H])C([H])([H])C1([H])[H]


 23 26  0  0  0  0  0  0  0  0999 V2000
   34.6975  -13.8439   38.0311 C   0  0  0  0  0  0  0  0  0  0  0  0
   34.8378  -13.8161   36.5498 C   0  0  0  0  0  0  0  0  0  0  0  0
   33.6432  -14.2800   35.8085 C   0  0  0  0  0  0  0  0  0  0  0  0
   33.4009  -15.7370   36.1781 C   0  0  0  0  0  0  0  0  0  0  0  0
   34.5970  -16.5089   35.7244 C   0  0  0  0  0  0  0  0  0  0  0  0
   35.8884  -16.0737   36.3747 C   0  0  0  0  0  0  0  0  0  0  0  0
   37.0216  -16.8392   35.7917 C   0  0  0  0  0  0  0  0  0  0  0  0
   36.6475  -17.9507   34.8875 C   0  0  0  0  0  0  0  0  0  0  0  0
   35.4578  -18.5379   34.8611 C   0  0  0  0  0  0  0  0  0  0  0  0
   35.2129  -19.6254   33.9216 C   0  0  0  0  0  0  0  0  0  0  0  0
   33.7666  -19.8283   33.5626 C   0  0  0  0  0  0  0  0  0  0  0  0
   33.2981  -20.9230   34.2895 O   0  0  0  0  0  0  0  0  0  0  0  0
   32.9154  -18.6299   33.9699 C   0  0  0  0  0  0  0  0  0  0  0  0
   33.0921  -18.5112   35.4664 C   0  0  0  0  0  0  0  0  0  0  0  0
   34.4497  -18.0014   35.8290 C   0  0  0  0  0  0  0  0  0  0  0  0
   34.7393  -18.5289   37.2131 C   0  0  0  0  0  0  0  0  0  0  0  0
   36.0539  -14.6136   36.0538 C   0  0  0  0  0  0  0  0  0  0  0  0
   37.1481  -13.9211   36.7811 C   0  0  0  0  0  0  0  0  0  0  0  0
   36.7312  -12.4546   36.7175 C   0  0  0  0  0  0  0  0  0  0  0  0
   35.3177  -12.4353   36.1546 C   0  0  0  0  0  0  0  0  0  0  0  0
   34.5514  -11.4232   36.6891 O   0  0  0  0  0  0  0  0  0  0  0  0
   33.7935  -21.7187   33.9182 H   0  0  0  0  0  0  0  0  0  0  0  0
   34.1769  -10.8243   35.9674 H   0  0  0  0  0  0  0  0  0  0  0  0
  2  1  1  0  0  0
  2  3  1  0  0  0
  3  4  1  0  0  0
  4  5  1  0  0  0
  5  6  1  0  0  0
  6  7  1  0  0  0
  7  8  1  0  0  0
  8  9  2  0  0  0
  9 10  1  0  0  0
 10 11  1  0  0  0
 11 12  1  0  0  0
 11 13  1  0  0  0
 13 14  1  0  0  0
 14 15  1  0  0  0
 15 16  1  0  0  0
  6 17  1  0  0  0
 17 18  1  0  0  0
 18 19  1  0  0  0
 19 20  1  0  0  0
 20 21  1  0  0  0
 17  2  1  0  0  0
 20  2  1  0  0  0
 15  5  1  0  0  0
 15  9  1  0  0  0
 12 22  1  0  0  0
 21 23  1  0  0  0
M  END
> <minimizedAffinity>
-6.17152

> <CNNscore>
0.5301694274

> <CNNaffinity>
4.9892024994

> <CNN_VS>
2.6451225281

> <CNNaffinity_variance>
0.3450695574

$$$$
[H]O[C@]1([H])C([H])([H])C2=C([H])C([H])([H])[C@@]3([H])[C@]4([H])C([H])([H])C([H])([H])[C@]([H])(O[H])[C@@]4(C([H])([H])[H])C([H])([H])C([H])([H])[C@]3([H])[C@@]2(C([H])([H])[H])C([H])([H])C1([H])[H]


 23 26  0  0  0  0  0  0  0  0999 V2000
   39.8186  -21.4191   34.0719 C   0  0  0  0  0  0  0  0  0  0  0  0
   41.0386  -20.5721   34.1662 C   0  0  0  0  0  0  0  0  0  0  0  0
   42.2995  -21.3255   34.3508 C   0  0  0  0  0  0  0  0  0  0  0  0
   42.2072  -22.0739   35.6734 C   0  0  0  0  0  0  0  0  0  0  0  0
   42.0812  -21.0461   36.7505 C   0  0  0  0  0  0  0  0  0  0  0  0
   40.8546  -20.1746   36.6238 C   0  0  0  0  0  0  0  0  0  0  0  0
   40.8713  -19.1347   37.6859 C   0  0  0  0  0  0  0  0  0  0  0  0
   41.9258  -19.2850   38.7147 C   0  0  0  0  0  0  0  0  0  0  0  0
   42.5713  -20.4141   38.9785 C   0  0  0  0  0  0  0  0  0  0  0  0
   43.5919  -20.4331   40.0192 C   0  0  0  0  0  0  0  0  0  0  0  0
   44.6220  -21.5180   39.8655 C   0  0  0  0  0  0  0  0  0  0  0  0
   44.3004  -22.5391   40.7602 O   0  0  0  0  0  0  0  0  0  0  0  0
   44.5883  -22.1278   38.4677 C   0  0  0  0  0  0  0  0  0  0  0  0
   43.1900  -22.6806   38.3124 C   0  0  0  0  0  0  0  0  0  0  0  0
   42.1762  -21.5947   38.1471 C   0  0  0  0  0  0  0  0  0  0  0  0
   40.8707  -22.1602   38.6507 C   0  0  0  0  0  0  0  0  0  0  0  0
   40.9417  -19.5134   35.2756 C   0  0  0  0  0  0  0  0  0  0  0  0
   39.7240  -18.7798   34.8456 C   0  0  0  0  0  0  0  0  0  0  0  0
   39.8691  -18.7295   33.3273 C   0  0  0  0  0  0  0  0  0  0  0  0
   41.0438  -19.6318   32.9793 C   0  0  0  0  0  0  0  0  0  0  0  0
   40.8724  -20.2794   31.7758 O   0  0  0  0  0  0  0  0  0  0  0  0
   44.4445  -22.1432   41.6761 H   0  0  0  0  0  0  0  0  0  0  0  0
   41.6367  -20.0901   31.1435 H   0  0  0  0  0  0  0  0  0  0  0  0
  2  1  1  0  0  0
  2  3  1  0  0  0
  3  4  1  0  0  0
  4  5  1  0  0  0
  5  6  1  0  0  0
  6  7  1  0  0  0
  7  8  1  0  0  0
  8  9  2  0  0  0
  9 10  1  0  0  0
 10 11  1  0  0  0
 11 12  1  0  0  0
 11 13  1  0  0  0
 13 14  1  0  0  0
 14 15  1  0  0  0
 15 16  1  0  0  0
  6 17  1  0  0  0
 17 18  1  0  0  0
 18 19  1  0  0  0
 19 20  1  0  0  0
 20 21  1  0  0  0
 17  2  1  0  0  0
 20  2  1  0  0  0
 15  5  1  0  0  0
 15  9  1  0  0  0
 12 22  1  0  0  0
 21 23  1  0  0  0
M  END
> <minimizedAffinity>
-4.23321

> <CNNscore>
0.5149737597

> <CNNaffinity>
4.0457563400

> <CNN_VS>
2.0834584236

> <CNNaffinity_variance>
0.0306529105

$$$$
[H]O[C@@]1([H])C([H])([H])C([H])([H])[C@]2([H])[C@]1(C([H])([H])[H])C([H])([H])[C@]1([H])[C@]3(C([H])([H])[H])C(=C([H])C([H])([H])[C@@]21[H])C([H])([H])[C@]([H])(O[H])C([H])([H])C3([H])[H]


 22 25  0  0  0  0  0  0  0  0999 V2000
   34.6255  -19.4447   34.0765 C   0  0  0  0  0  0  0  0  0  0  0  0
   34.1153  -19.2921   35.4826 C   0  0  0  0  0  0  0  0  0  0  0  0
   33.6345  -20.5376   36.0987 C   0  0  0  0  0  0  0  0  0  0  0  0
   32.1547  -20.4832   35.9637 C   0  0  0  0  0  0  0  0  0  0  0  0
   31.8771  -19.3429   34.9672 C   0  0  0  0  0  0  0  0  0  0  0  0
   30.4367  -19.0024   35.0806 C   0  0  0  0  0  0  0  0  0  0  0  0
   29.5545  -20.1763   35.3286 C   0  0  0  0  0  0  0  0  0  0  0  0
   30.0038  -21.3934   35.5647 C   0  0  0  0  0  0  0  0  0  0  0  0
   29.0233  -22.4775   35.7966 C   0  0  0  0  0  0  0  0  0  0  0  0
   29.6124  -23.8471   35.7921 C   0  0  0  0  0  0  0  0  0  0  0  0
   28.5874  -24.7285   36.1801 O   0  0  0  0  0  0  0  0  0  0  0  0
   30.7784  -23.9175   36.7208 C   0  0  0  0  0  0  0  0  0  0  0  0
   31.6299  -22.6997   36.7891 C   0  0  0  0  0  0  0  0  0  0  0  0
   31.4517  -21.7488   35.6153 C   0  0  0  0  0  0  0  0  0  0  0  0
   31.9364  -22.4306   34.3859 C   0  0  0  0  0  0  0  0  0  0  0  0
   32.8400  -18.4163   35.5147 C   0  0  0  0  0  0  0  0  0  0  0  0
   33.3160  -17.2215   34.8854 C   0  0  0  0  0  0  0  0  0  0  0  0
   34.6649  -17.0220   35.6049 C   0  0  0  0  0  0  0  0  0  0  0  0
   34.9821  -18.3784   36.2623 C   0  0  0  0  0  0  0  0  0  0  0  0
   36.3140  -18.7025   36.1449 O   0  0  0  0  0  0  0  0  0  0  0  0
   28.2818  -24.5516   37.1078 H   0  0  0  0  0  0  0  0  0  0  0  0
   36.8893  -17.9330   35.9531 H   0  0  0  0  0  0  0  0  0  0  0  0
  2  1  1  0  0  0
  2  3  1  0  0  0
  3  4  1  0  0  0
  4  5  1  0  0  0
  5  6  1  0  0  0
  6  7  1  0  0  0
  7  8  2  0  0  0
  8  9  1  0  0  0
  9 10  1  0  0  0
 10 11  1  0  0  0
 10 12  1  0  0  0
 12 13  1  0  0  0
 13 14  1  0  0  0
 14 15  1  0  0  0
  5 16  1  0  0  0
 16 17  1  0  0  0
 17 18  1  0  0  0
 18 19  1  0  0  0
 19 20  1  0  0  0
 16  2  1  0  0  0
 19  2  1  0  0  0
 14  4  1  0  0  0
 14  8  1  0  0  0
 11 21  1  0  0  0
 20 22  1  0  0  0
M  END
> <minimizedAffinity>
-5.90590

> <CNNscore>
0.7274445891

> <CNNaffinity>
4.4010667801

> <CNN_VS>
3.2015321255

> <CNNaffinity_variance>
0.3853723705

$$$$
[H]O[C@@]1([H])C([H])([H])C([H])([H])[C@]2([H])[C@]1(C([H])([H])[H])C([H])([H])[C@]1([H])[C@]3(C([H])([H])[H])C(=C([H])C([H])([H])[C@@]21[H])C([H])([H])[C@]([H])(O[H])C([H])([H])C3([H])[H]


 22 25  0  0  0  0  0  0  0  0999 V2000
   33.3003  -19.7891   36.4944 C   0  0  0  0  0  0  0  0  0  0  0  0
   32.2414  -19.6231   35.4401 C   0  0  0  0  0  0  0  0  0  0  0  0
   30.8856  -19.9977   35.8686 C   0  0  0  0  0  0  0  0  0  0  0  0
   30.6762  -21.3637   35.3199 C   0  0  0  0  0  0  0  0  0  0  0  0
   32.0698  -21.8429   34.8743 C   0  0  0  0  0  0  0  0  0  0  0  0
   31.8677  -23.0212   33.9943 C   0  0  0  0  0  0  0  0  0  0  0  0
   30.7357  -23.8973   34.4055 C   0  0  0  0  0  0  0  0  0  0  0  0
   29.8942  -23.5996   35.3762 C   0  0  0  0  0  0  0  0  0  0  0  0
   28.8083  -24.5551   35.6896 C   0  0  0  0  0  0  0  0  0  0  0  0
   28.0800  -24.2601   36.9567 C   0  0  0  0  0  0  0  0  0  0  0  0
   26.9971  -25.1555   37.0175 O   0  0  0  0  0  0  0  0  0  0  0  0
   27.6210  -22.8403   36.9773 C   0  0  0  0  0  0  0  0  0  0  0  0
   28.5403  -21.8505   36.3546 C   0  0  0  0  0  0  0  0  0  0  0  0
   29.9677  -22.3477   36.1842 C   0  0  0  0  0  0  0  0  0  0  0  0
   30.5549  -22.5498   37.5353 C   0  0  0  0  0  0  0  0  0  0  0  0
   32.4768  -20.5996   34.2630 C   0  0  0  0  0  0  0  0  0  0  0  0
   33.8091  -20.2432   33.8778 C   0  0  0  0  0  0  0  0  0  0  0  0
   33.7179  -18.7041   33.8761 C   0  0  0  0  0  0  0  0  0  0  0  0
   32.4467  -18.3691   34.6787 C   0  0  0  0  0  0  0  0  0  0  0  0
   32.6370  -17.2864   35.5061 O   0  0  0  0  0  0  0  0  0  0  0  0
   26.3539  -25.0056   36.2764 H   0  0  0  0  0  0  0  0  0  0  0  0
   33.3998  -16.7272   35.2508 H   0  0  0  0  0  0  0  0  0  0  0  0
  2  1  1  0  0  0
  2  3  1  0  0  0
  3  4  1  0  0  0
  4  5  1  0  0  0
  5  6  1  0  0  0
  6  7  1  0  0  0
  7  8  2  0  0  0
  8  9  1  0  0  0
  9 10  1  0  0  0
 10 11  1  0  0  0
 10 12  1  0  0  0
 12 13  1  0  0  0
 13 14  1  0  0  0
 14 15  1  0  0  0
  5 16  1  0  0  0
 16 17  1  0  0  0
 17 18  1  0  0  0
 18 19  1  0  0  0
 19 20  1  0  0  0
 16  2  1  0  0  0
 19  2  1  0  0  0
 14  4  1  0  0  0
 14  8  1  0  0  0
 11 21  1  0  0  0
 20 22  1  0  0  0
M  END
> <minimizedAffinity>
-5.06503

> <CNNscore>
0.6796843410

> <CNNaffinity>
4.3444223404

> <CNN_VS>
2.9528357983

> <CNNaffinity_variance>
0.1972955763

$$$$
[H]O[C@@]1([H])C([H])([H])C([H])([H])[C@]2([H])[C@]1(C([H])([H])[H])C([H])([H])[C@]1([H])[C@]3(C([H])([H])[H])C(=C([H])C([H])([H])[C@@]21[H])C([H])([H])[C@]([H])(O[H])C([H])([H])C3([H])[H]


 22 25  0  0  0  0  0  0  0  0999 V2000
   31.6527  -19.8992   33.6777 C   0  0  0  0  0  0  0  0  0  0  0  0
   31.6437  -19.4256   35.1047 C   0  0  0  0  0  0  0  0  0  0  0  0
   32.7153  -18.4772   35.4426 C   0  0  0  0  0  0  0  0  0  0  0  0
   33.7509  -19.2987   36.1235 C   0  0  0  0  0  0  0  0  0  0  0  0
   33.3594  -20.7616   35.8458 C   0  0  0  0  0  0  0  0  0  0  0  0
   34.1253  -21.6082   36.7946 C   0  0  0  0  0  0  0  0  0  0  0  0
   35.5019  -21.1127   37.0731 C   0  0  0  0  0  0  0  0  0  0  0  0
   35.9679  -19.9595   36.6352 C   0  0  0  0  0  0  0  0  0  0  0  0
   37.3559  -19.5796   36.9809 C   0  0  0  0  0  0  0  0  0  0  0  0
   37.8725  -18.3991   36.2310 C   0  0  0  0  0  0  0  0  0  0  0  0
   39.1244  -18.0831   36.7885 O   0  0  0  0  0  0  0  0  0  0  0  0
   36.9197  -17.2554   36.3361 C   0  0  0  0  0  0  0  0  0  0  0  0
   35.4751  -17.6104   36.3379 C   0  0  0  0  0  0  0  0  0  0  0  0
   35.1758  -19.0042   35.8074 C   0  0  0  0  0  0  0  0  0  0  0  0
   35.5298  -19.0388   34.3635 C   0  0  0  0  0  0  0  0  0  0  0  0
   31.9437  -20.5929   36.0752 C   0  0  0  0  0  0  0  0  0  0  0  0
   30.9124  -21.5180   35.7132 C   0  0  0  0  0  0  0  0  0  0  0  0
   29.6860  -20.5861   35.6444 C   0  0  0  0  0  0  0  0  0  0  0  0
   30.2608  -19.1594   35.5638 C   0  0  0  0  0  0  0  0  0  0  0  0
   29.5612  -18.3777   34.6735 O   0  0  0  0  0  0  0  0  0  0  0  0
   39.0447  -17.8060   37.7383 H   0  0  0  0  0  0  0  0  0  0  0  0
   28.6665  -18.7209   34.4694 H   0  0  0  0  0  0  0  0  0  0  0  0
  2  1  1  0  0  0
  2  3  1  0  0  0
  3  4  1  0  0  0
  4  5  1  0  0  0
  5  6  1  0  0  0
  6  7  1  0  0  0
  7  8  2  0  0  0
  8  9  1  0  0  0
  9 10  1  0  0  0
 10 11  1  0  0  0
 10 12  1  0  0  0
 12 13  1  0  0  0
 13 14  1  0  0  0
 14 15  1  0  0  0
  5 16  1  0  0  0
 16 17  1  0  0  0
 17 18  1  0  0  0
 18 19  1  0  0  0
 19 20  1  0  0  0
 16  2  1  0  0  0
 19  2  1  0  0  0
 14  4  1  0  0  0
 14  8  1  0  0  0
 11 21  1  0  0  0
 20 22  1  0  0  0
M  END
> <minimizedAffinity>
-5.95218

> <CNNscore>
0.6505937576

> <CNNaffinity>
4.6336030960

> <CNN_VS>
3.0145933628

> <CNNaffinity_variance>
0.1395992339

$$$$
[H]O[C@@]1([H])C([H])([H])C([H])([H])[C@]2([H])[C@]1(C([H])([H])[H])C([H])([H])[C@]1([H])[C@]3(C([H])([H])[H])C(=C([H])C([H])([H])[C@@]21[H])C([H])([H])[C@]([H])(O[H])C([H])([H])C3([H])[H]


 22 25  0  0  0  0  0  0  0  0999 V2000
   35.7951  -20.0025   35.5111 C   0  0  0  0  0  0  0  0  0  0  0  0
   34.9362  -19.5804   36.6708 C   0  0  0  0  0  0  0  0  0  0  0  0
   33.9459  -20.5807   37.0960 C   0  0  0  0  0  0  0  0  0  0  0  0
   32.6669  -20.1360   36.4815 C   0  0  0  0  0  0  0  0  0  0  0  0
   33.0610  -19.0652   35.4478 C   0  0  0  0  0  0  0  0  0  0  0  0
   31.8228  -18.3336   35.0804 C   0  0  0  0  0  0  0  0  0  0  0  0
   30.6063  -19.1909   35.0258 C   0  0  0  0  0  0  0  0  0  0  0  0
   30.5842  -20.4558   35.3981 C   0  0  0  0  0  0  0  0  0  0  0  0
   29.3100  -21.2017   35.2958 C   0  0  0  0  0  0  0  0  0  0  0  0
   29.4455  -22.6741   35.4871 C   0  0  0  0  0  0  0  0  0  0  0  0
   28.1410  -23.1988   35.5173 O   0  0  0  0  0  0  0  0  0  0  0  0
   30.1867  -22.9713   36.7478 C   0  0  0  0  0  0  0  0  0  0  0  0
   31.2887  -22.0329   37.0910 C   0  0  0  0  0  0  0  0  0  0  0  0
   31.7733  -21.1879   35.9228 C   0  0  0  0  0  0  0  0  0  0  0  0
   32.3997  -22.0921   34.9221 C   0  0  0  0  0  0  0  0  0  0  0  0
   34.0283  -18.3897   36.2804 C   0  0  0  0  0  0  0  0  0  0  0  0
   35.0038  -17.4379   35.8413 C   0  0  0  0  0  0  0  0  0  0  0  0
   36.0545  -17.5473   36.9644 C   0  0  0  0  0  0  0  0  0  0  0  0
   35.7400  -18.8684   37.6912 C   0  0  0  0  0  0  0  0  0  0  0  0
   36.8863  -19.5551   38.0190 O   0  0  0  0  0  0  0  0  0  0  0  0
   27.6245  -22.8560   36.2926 H   0  0  0  0  0  0  0  0  0  0  0  0
   37.6902  -18.9951   38.0263 H   0  0  0  0  0  0  0  0  0  0  0  0
  2  1  1  0  0  0
  2  3  1  0  0  0
  3  4  1  0  0  0
  4  5  1  0  0  0
  5  6  1  0  0  0
  6  7  1  0  0  0
  7  8  2  0  0  0
  8  9  1  0  0  0
  9 10  1  0  0  0
 10 11  1  0  0  0
 10 12  1  0  0  0
 12 13  1  0  0  0
 13 14  1  0  0  0
 14 15  1  0  0  0
  5 16  1  0  0  0
 16 17  1  0  0  0
 17 18  1  0  0  0
 18 19  1  0  0  0
 19 20  1  0  0  0
 16  2  1  0  0  0
 19  2  1  0  0  0
 14  4  1  0  0  0
 14  8  1  0  0  0
 11 21  1  0  0  0
 20 22  1  0  0  0
M  END
> <minimizedAffinity>
-5.23383

> <CNNscore>
0.6471644044

> <CNNaffinity>
4.3925046921

> <CNN_VS>
2.8426725864

> <CNNaffinity_variance>
0.1499313414

$$$$
[H]O[C@@]1([H])C([H])([H])C([H])([H])[C@]2([H])[C@]1(C([H])([H])[H])C([H])([H])[C@]1([H])[C@]3(C([H])([H])[H])C(=C([H])C([H])([H])[C@@]21[H])C([H])([H])[C@]([H])(O[H])C([H])([H])C3([H])[H]


 22 25  0  0  0  0  0  0  0  0999 V2000
   36.9095  -17.2051   35.0923 C   0  0  0  0  0  0  0  0  0  0  0  0
   36.8167  -18.6112   34.5679 C   0  0  0  0  0  0  0  0  0  0  0  0
   35.5167  -18.9601   33.9760 C   0  0  0  0  0  0  0  0  0  0  0  0
   34.8047  -19.7175   35.0393 C   0  0  0  0  0  0  0  0  0  0  0  0
   35.6175  -19.4786   36.3249 C   0  0  0  0  0  0  0  0  0  0  0  0
   35.1780  -20.4923   37.3162 C   0  0  0  0  0  0  0  0  0  0  0  0
   33.7251  -20.8128   37.2513 C   0  0  0  0  0  0  0  0  0  0  0  0
   32.9143  -20.3525   36.3187 C   0  0  0  0  0  0  0  0  0  0  0  0
   31.4881  -20.7452   36.3638 C   0  0  0  0  0  0  0  0  0  0  0  0
   30.6113  -19.9745   35.4362 C   0  0  0  0  0  0  0  0  0  0  0  0
   29.3406  -20.5750   35.4899 O   0  0  0  0  0  0  0  0  0  0  0  0
   31.1699  -19.9933   34.0525 C   0  0  0  0  0  0  0  0  0  0  0  0
   32.6530  -19.9441   33.9492 C   0  0  0  0  0  0  0  0  0  0  0  0
   33.3491  -19.4543   35.2099 C   0  0  0  0  0  0  0  0  0  0  0  0
   32.9785  -18.0300   35.4230 C   0  0  0  0  0  0  0  0  0  0  0  0
   36.9195  -19.6379   35.7210 C   0  0  0  0  0  0  0  0  0  0  0  0
   38.1732  -19.2658   36.3041 C   0  0  0  0  0  0  0  0  0  0  0  0
   39.0517  -19.1067   35.0470 C   0  0  0  0  0  0  0  0  0  0  0  0
   38.0647  -18.9975   33.8697 C   0  0  0  0  0  0  0  0  0  0  0  0
   38.4628  -18.0477   32.9573 O   0  0  0  0  0  0  0  0  0  0  0  0
   29.3607  -21.5091   35.1546 H   0  0  0  0  0  0  0  0  0  0  0  0
   39.4129  -17.8171   33.0209 H   0  0  0  0  0  0  0  0  0  0  0  0
  2  1  1  0  0  0
  2  3  1  0  0  0
  3  4  1  0  0  0
  4  5  1  0  0  0
  5  6  1  0  0  0
  6  7  1  0  0  0
  7  8  2  0  0  0
  8  9  1  0  0  0
  9 10  1  0  0  0
 10 11  1  0  0  0
 10 12  1  0  0  0
 12 13  1  0  0  0
 13 14  1  0  0  0
 14 15  1  0  0  0
  5 16  1  0  0  0
 16 17  1  0  0  0
 17 18  1  0  0  0
 18 19  1  0  0  0
 19 20  1  0  0  0
 16  2  1  0  0  0
 19  2  1  0  0  0
 14  4  1  0  0  0
 14  8  1  0  0  0
 11 21  1  0  0  0
 20 22  1  0  0  0
M  END
> <minimizedAffinity>
-6.22000

> <CNNscore>
0.6260233521

> <CNNaffinity>
4.7393641472

> <CNN_VS>
2.9669525623

> <CNNaffinity_variance>
0.1911496818

$$$$
[H]O[C@@]1([H])C([H])([H])C([H])([H])[C@]2([H])[C@]1(C([H])([H])[H])C([H])([H])[C@]1([H])[C@]3(C([H])([H])[H])C(=C([H])C([H])([H])[C@@]21[H])C([H])([H])[C@]([H])(O[H])C([H])([H])C3([H])[H]


 22 25  0  0  0  0  0  0  0  0999 V2000
   31.2413  -22.8920   34.7491 C   0  0  0  0  0  0  0  0  0  0  0  0
   30.7937  -21.9158   35.8014 C   0  0  0  0  0  0  0  0  0  0  0  0
   31.1400  -20.5139   35.5239 C   0  0  0  0  0  0  0  0  0  0  0  0
   32.3536  -20.2519   36.3421 C   0  0  0  0  0  0  0  0  0  0  0  0
   32.8420  -21.6372   36.8035 C   0  0  0  0  0  0  0  0  0  0  0  0
   33.8083  -21.4158   37.9084 C   0  0  0  0  0  0  0  0  0  0  0  0
   34.6587  -20.2054   37.7360 C   0  0  0  0  0  0  0  0  0  0  0  0
   34.4918  -19.3246   36.7689 C   0  0  0  0  0  0  0  0  0  0  0  0
   35.4044  -18.1612   36.7057 C   0  0  0  0  0  0  0  0  0  0  0  0
   35.3063  -17.3740   35.4433 C   0  0  0  0  0  0  0  0  0  0  0  0
   36.1113  -16.2336   35.6154 O   0  0  0  0  0  0  0  0  0  0  0  0
   33.8867  -17.0076   35.1649 C   0  0  0  0  0  0  0  0  0  0  0  0
   32.8678  -18.0272   35.5324 C   0  0  0  0  0  0  0  0  0  0  0  0
   33.4298  -19.4272   35.7264 C   0  0  0  0  0  0  0  0  0  0  0  0
   33.9343  -19.9124   34.4143 C   0  0  0  0  0  0  0  0  0  0  0  0
   31.5384  -22.1623   37.1352 C   0  0  0  0  0  0  0  0  0  0  0  0
   31.2165  -23.5367   37.3751 C   0  0  0  0  0  0  0  0  0  0  0  0
   29.7039  -23.5458   37.0765 C   0  0  0  0  0  0  0  0  0  0  0  0
   29.4352  -22.2502   36.2880 C   0  0  0  0  0  0  0  0  0  0  0  0
   28.5512  -22.4570   35.2541 O   0  0  0  0  0  0  0  0  0  0  0  0
   35.7720  -15.6503   36.3433 H   0  0  0  0  0  0  0  0  0  0  0  0
   28.0129  -23.2693   35.3552 H   0  0  0  0  0  0  0  0  0  0  0  0
  2  1  1  0  0  0
  2  3  1  0  0  0
  3  4  1  0  0  0
  4  5  1  0  0  0
  5  6  1  0  0  0
  6  7  1  0  0  0
  7  8  2  0  0  0
  8  9  1  0  0  0
  9 10  1  0  0  0
 10 11  1  0  0  0
 10 12  1  0  0  0
 12 13  1  0  0  0
 13 14  1  0  0  0
 14 15  1  0  0  0
  5 16  1  0  0  0
 16 17  1  0  0  0
 17 18  1  0  0  0
 18 19  1  0  0  0
 19 20  1  0  0  0
 16  2  1  0  0  0
 19  2  1  0  0  0
 14  4  1  0  0  0
 14  8  1  0  0  0
 11 21  1  0  0  0
 20 22  1  0  0  0
M  END
> <minimizedAffinity>
-5.22159

> <CNNscore>
0.6049616933

> <CNNaffinity>
4.3564596176

> <CNN_VS>
2.6354911327

> <CNNaffinity_variance>
0.1933734268

$$$$
[H]O[C@@]1([H])C([H])([H])C([H])([H])[C@]2([H])[C@]1(C([H])([H])[H])C([H])([H])[C@]1([H])[C@]3(C([H])([H])[H])C(=C([H])C([H])([H])[C@@]21[H])C([H])([H])[C@]([H])(O[H])C([H])([H])C3([H])[H]


 22 25  0  0  0  0  0  0  0  0999 V2000
   37.4945  -22.8065   37.0534 C   0  0  0  0  0  0  0  0  0  0  0  0
   37.2761  -21.4037   37.5486 C   0  0  0  0  0  0  0  0  0  0  0  0
   38.1976  -20.4050   36.9870 C   0  0  0  0  0  0  0  0  0  0  0  0
   39.2308  -20.2062   38.0378 C   0  0  0  0  0  0  0  0  0  0  0  0
   39.0285  -21.3630   39.0335 C   0  0  0  0  0  0  0  0  0  0  0  0
   39.7678  -21.0103   40.2714 C   0  0  0  0  0  0  0  0  0  0  0  0
   41.0450  -20.2838   40.0281 C   0  0  0  0  0  0  0  0  0  0  0  0
   41.4335  -19.8631   38.8402 C   0  0  0  0  0  0  0  0  0  0  0  0
   42.7265  -19.1515   38.7293 C   0  0  0  0  0  0  0  0  0  0  0  0
   43.1971  -18.9516   37.3288 C   0  0  0  0  0  0  0  0  0  0  0  0
   44.3386  -18.1330   37.3996 O   0  0  0  0  0  0  0  0  0  0  0  0
   42.1238  -18.3273   36.5009 C   0  0  0  0  0  0  0  0  0  0  0  0
   40.7334  -18.7600   36.8049 C   0  0  0  0  0  0  0  0  0  0  0  0
   40.6434  -20.0595   37.5903 C   0  0  0  0  0  0  0  0  0  0  0  0
   41.1586  -21.1591   36.7318 C   0  0  0  0  0  0  0  0  0  0  0  0
   37.5862  -21.2979   39.0609 C   0  0  0  0  0  0  0  0  0  0  0  0
   36.7048  -22.2954   39.5886 C   0  0  0  0  0  0  0  0  0  0  0  0
   35.4029  -21.9768   38.8265 C   0  0  0  0  0  0  0  0  0  0  0  0
   35.8301  -21.0948   37.6383 C   0  0  0  0  0  0  0  0  0  0  0  0
   35.1566  -21.4305   36.4865 O   0  0  0  0  0  0  0  0  0  0  0  0
   44.1243  -17.2335   37.7605 H   0  0  0  0  0  0  0  0  0  0  0  0
   34.3314  -21.9335   36.6473 H   0  0  0  0  0  0  0  0  0  0  0  0
  2  1  1  0  0  0
  2  3  1  0  0  0
  3  4  1  0  0  0
  4  5  1  0  0  0
  5  6  1  0  0  0
  6  7  1  0  0  0
  7  8  2  0  0  0
  8  9  1  0  0  0
  9 10  1  0  0  0
 10 11  1  0  0  0
 10 12  1  0  0  0
 12 13  1  0  0  0
 13 14  1  0  0  0
 14 15  1  0  0  0
  5 16  1  0  0  0
 16 17  1  0  0  0
 17 18  1  0  0  0
 18 19  1  0  0  0
 19 20  1  0  0  0
 16  2  1  0  0  0
 19  2  1  0  0  0
 14  4  1  0  0  0
 14  8  1  0  0  0
 11 21  1  0  0  0
 20 22  1  0  0  0
M  END
> <minimizedAffinity>
-4.53703

> <CNNscore>
0.5763314366

> <CNNaffinity>
4.0835719109

> <CNN_VS>
2.3534908295

> <CNNaffinity_variance>
0.0378165655

$$$$
[H]O[C@@]1([H])C([H])([H])C([H])([H])[C@]2([H])[C@]1(C([H])([H])[H])C([H])([H])[C@]1([H])[C@]3(C([H])([H])[H])C(=C([H])C([H])([H])[C@@]21[H])C([H])([H])[C@]([H])(O[H])C([H])([H])C3([H])[H]


 22 25  0  0  0  0  0  0  0  0999 V2000
   31.7772  -22.6184   37.7376 C   0  0  0  0  0  0  0  0  0  0  0  0
   32.3429  -22.5401   36.3468 C   0  0  0  0  0  0  0  0  0  0  0  0
   33.7493  -22.1160   36.2801 C   0  0  0  0  0  0  0  0  0  0  0  0
   33.6959  -20.6725   35.9273 C   0  0  0  0  0  0  0  0  0  0  0  0
   32.2283  -20.2555   36.1343 C   0  0  0  0  0  0  0  0  0  0  0  0
   32.0429  -18.9502   35.4521 C   0  0  0  0  0  0  0  0  0  0  0  0
   33.2250  -18.0485   35.5383 C   0  0  0  0  0  0  0  0  0  0  0  0
   34.3858  -18.4091   36.0498 C   0  0  0  0  0  0  0  0  0  0  0  0
   35.4854  -17.4189   36.0777 C   0  0  0  0  0  0  0  0  0  0  0  0
   36.6578  -17.8292   36.9024 C   0  0  0  0  0  0  0  0  0  0  0  0
   37.6573  -16.8623   36.6919 O   0  0  0  0  0  0  0  0  0  0  0  0
   37.1210  -19.1926   36.5106 C   0  0  0  0  0  0  0  0  0  0  0  0
   36.0544  -20.1579   36.1321 C   0  0  0  0  0  0  0  0  0  0  0  0
   34.6630  -19.7656   36.6051 C   0  0  0  0  0  0  0  0  0  0  0  0
   34.6466  -19.8106   38.0914 C   0  0  0  0  0  0  0  0  0  0  0  0
   31.6434  -21.4285   35.5284 C   0  0  0  0  0  0  0  0  0  0  0  0
   30.2753  -21.8389   35.6285 C   0  0  0  0  0  0  0  0  0  0  0  0
   30.3940  -23.3483   35.3373 C   0  0  0  0  0  0  0  0  0  0  0  0
   31.8853  -23.6848   35.5255 C   0  0  0  0  0  0  0  0  0  0  0  0
   32.0587  -24.8873   36.1712 O   0  0  0  0  0  0  0  0  0  0  0  0
   37.9627  -16.8486   35.7475 H   0  0  0  0  0  0  0  0  0  0  0  0
   31.2699  -25.4674   36.1381 H   0  0  0  0  0  0  0  0  0  0  0  0
  2  1  1  0  0  0
  2  3  1  0  0  0
  3  4  1  0  0  0
  4  5  1  0  0  0
  5  6  1  0  0  0
  6  7  1  0  0  0
  7  8  2  0  0  0
  8  9  1  0  0  0
  9 10  1  0  0  0
 10 11  1  0  0  0
 10 12  1  0  0  0
 12 13  1  0  0  0
 13 14  1  0  0  0
 14 15  1  0  0  0
  5 16  1  0  0  0
 16 17  1  0  0  0
 17 18  1  0  0  0
 18 19  1  0  0  0
 19 20  1  0  0  0
 16  2  1  0  0  0
 19  2  1  0  0  0
 14  4  1  0  0  0
 14  8  1  0  0  0
 11 21  1  0  0  0
 20 22  1  0  0  0
M  END
> <minimizedAffinity>
-4.82322

> <CNNscore>
0.5528643131

> <CNNaffinity>
4.3074846268

> <CNN_VS>
2.3814544678

> <CNNaffinity_variance>
0.1170101762

$$$$
[H]O[C@@]1([H])C([H])([H])C([H])([H])[C@]2([H])[C@]1(C([H])([H])[H])C([H])([H])[C@]1([H])[C@]3(C([H])([H])[H])C(=C([H])C([H])([H])[C@@]21[H])C([H])([H])[C@]([H])(O[H])C([H])([H])C3([H])[H]


 22 25  0  0  0  0  0  0  0  0999 V2000
   32.5929  -20.7639   34.2128 C   0  0  0  0  0  0  0  0  0  0  0  0
   32.1481  -20.0747   35.4729 C   0  0  0  0  0  0  0  0  0  0  0  0
   32.4142  -18.6290   35.5075 C   0  0  0  0  0  0  0  0  0  0  0  0
   33.6503  -18.4883   36.3220 C   0  0  0  0  0  0  0  0  0  0  0  0
   34.2246  -19.9118   36.4419 C   0  0  0  0  0  0  0  0  0  0  0  0
   35.2288  -19.8889   37.5349 C   0  0  0  0  0  0  0  0  0  0  0  0
   36.0119  -18.6244   37.6114 C   0  0  0  0  0  0  0  0  0  0  0  0
   35.7592  -17.5605   36.8745 C   0  0  0  0  0  0  0  0  0  0  0  0
   36.6116  -16.3626   37.0447 C   0  0  0  0  0  0  0  0  0  0  0  0
   36.4184  -15.3198   35.9967 C   0  0  0  0  0  0  0  0  0  0  0  0
   37.1753  -14.2031   36.3944 O   0  0  0  0  0  0  0  0  0  0  0  0
   34.9718  -14.9814   35.8566 C   0  0  0  0  0  0  0  0  0  0  0  0
   34.0204  -16.1134   36.0187 C   0  0  0  0  0  0  0  0  0  0  0  0
   34.6566  -17.4873   35.8723 C   0  0  0  0  0  0  0  0  0  0  0  0
   35.1230  -17.6373   34.4683 C   0  0  0  0  0  0  0  0  0  0  0  0
   32.9639  -20.5708   36.6905 C   0  0  0  0  0  0  0  0  0  0  0  0
   32.7191  -21.9800   36.6246 C   0  0  0  0  0  0  0  0  0  0  0  0
   31.1966  -22.0077   36.3832 C   0  0  0  0  0  0  0  0  0  0  0  0
   30.8307  -20.5860   35.9172 C   0  0  0  0  0  0  0  0  0  0  0  0
   29.9112  -20.6059   34.8939 O   0  0  0  0  0  0  0  0  0  0  0  0
   36.8424  -13.8176   37.2463 H   0  0  0  0  0  0  0  0  0  0  0  0
   29.4172  -21.4494   34.8271 H   0  0  0  0  0  0  0  0  0  0  0  0
  2  1  1  0  0  0
  2  3  1  0  0  0
  3  4  1  0  0  0
  4  5  1  0  0  0
  5  6  1  0  0  0
  6  7  1  0  0  0
  7  8  2  0  0  0
  8  9  1  0  0  0
  9 10  1  0  0  0
 10 11  1  0  0  0
 10 12  1  0  0  0
 12 13  1  0  0  0
 13 14  1  0  0  0
 14 15  1  0  0  0
  5 16  1  0  0  0
 16 17  1  0  0  0
 17 18  1  0  0  0
 18 19  1  0  0  0
 19 20  1  0  0  0
 16  2  1  0  0  0
 19  2  1  0  0  0
 14  4  1  0  0  0
 14  8  1  0  0  0
 11 21  1  0  0  0
 20 22  1  0  0  0
M  END
> <minimizedAffinity>
-6.59739

> <CNNscore>
0.5479245186

> <CNNaffinity>
4.4863843918

> <CNN_VS>
2.4581999779

> <CNNaffinity_variance>
0.3265975416

$$$$
[H]O[C@]1([H])C([H])([H])C2=C([H])C([H])([H])[C@@]3([H])[C@]4([H])C([H])([H])C([H])([H])[C@]([H])(O[H])[C@@]4(C([H])([H])[H])C([H])([H])[C@]3([H])[C@@]2(C([H])([H])[H])C([H])([H])C1([H])[H]


 22 25  0  0  0  0  0  0  0  0999 V2000
   34.9533  -19.2868   34.4465 C   0  0  0  0  0  0  0  0  0  0  0  0
   34.3141  -18.9655   35.7569 C   0  0  0  0  0  0  0  0  0  0  0  0
   33.7957  -20.1566   36.4536 C   0  0  0  0  0  0  0  0  0  0  0  0
   32.3502  -20.1861   36.0979 C   0  0  0  0  0  0  0  0  0  0  0  0
   32.1420  -19.1191   34.9994 C   0  0  0  0  0  0  0  0  0  0  0  0
   30.6767  -18.8463   34.9831 C   0  0  0  0  0  0  0  0  0  0  0  0
   29.8464  -20.0349   35.2610 C   0  0  0  0  0  0  0  0  0  0  0  0
   30.2798  -21.2293   35.5980 C   0  0  0  0  0  0  0  0  0  0  0  0
   29.3052  -22.3301   35.8461 C   0  0  0  0  0  0  0  0  0  0  0  0
   29.7187  -23.1707   37.0415 C   0  0  0  0  0  0  0  0  0  0  0  0
   28.8844  -24.2858   37.0843 O   0  0  0  0  0  0  0  0  0  0  0  0
   31.1228  -23.6686   36.7718 C   0  0  0  0  0  0  0  0  0  0  0  0
   32.0454  -22.4725   36.8279 C   0  0  0  0  0  0  0  0  0  0  0  0
   31.7657  -21.4832   35.7340 C   0  0  0  0  0  0  0  0  0  0  0  0
   32.2154  -22.0050   34.3865 C   0  0  0  0  0  0  0  0  0  0  0  0
   33.0232  -18.1374   35.5871 C   0  0  0  0  0  0  0  0  0  0  0  0
   33.5077  -16.9563   34.9421 C   0  0  0  0  0  0  0  0  0  0  0  0
   34.7936  -16.6740   35.7402 C   0  0  0  0  0  0  0  0  0  0  0  0
   35.0882  -17.9710   36.5133 C   0  0  0  0  0  0  0  0  0  0  0  0
   36.4574  -18.2134   36.5613 O   0  0  0  0  0  0  0  0  0  0  0  0
   28.0184  -24.0191   37.4517 H   0  0  0  0  0  0  0  0  0  0  0  0
   36.9141  -17.3232   36.4493 H   0  0  0  0  0  0  0  0  0  0  0  0
  2  1  1  0  0  0
  2  3  1  0  0  0
  3  4  1  0  0  0
  4  5  1  0  0  0
  5  6  1  0  0  0
  6  7  1  0  0  0
  7  8  2  0  0  0
  8  9  1  0  0  0
  9 10  1  0  0  0
 10 11  1  0  0  0
 10 12  1  0  0  0
 12 13  1  0  0  0
 13 14  1  0  0  0
 14 15  1  0  0  0
  5 16  1  0  0  0
 16 17  1  0  0  0
 17 18  1  0  0  0
 18 19  1  0  0  0
 19 20  1  0  0  0
 16  2  1  0  0  0
 19  2  1  0  0  0
 14  4  1  0  0  0
 14  8  1  0  0  0
 11 21  1  0  0  0
 20 22  1  0  0  0
M  END
> <minimizedAffinity>
-5.72465

> <CNNscore>
0.7003163099

> <CNNaffinity>
4.3604755402

> <CNN_VS>
3.0537121296

> <CNNaffinity_variance>
0.3524070680

$$$$
[H]O[C@]1([H])C([H])([H])C2=C([H])C([H])([H])[C@@]3([H])[C@]4([H])C([H])([H])C([H])([H])[C@]([H])(O[H])[C@@]4(C([H])([H])[H])C([H])([H])[C@]3([H])[C@@]2(C([H])([H])[H])C([H])([H])C1([H])[H]


 22 25  0  0  0  0  0  0  0  0999 V2000
   29.7248  -24.1305   34.9233 C   0  0  0  0  0  0  0  0  0  0  0  0
   29.2712  -23.0960   35.8996 C   0  0  0  0  0  0  0  0  0  0  0  0
   29.5688  -21.7201   35.4624 C   0  0  0  0  0  0  0  0  0  0  0  0
   30.8420  -21.3845   36.1576 C   0  0  0  0  0  0  0  0  0  0  0  0
   31.3566  -22.6940   36.7971 C   0  0  0  0  0  0  0  0  0  0  0  0
   32.3412  -22.2702   37.8327 C   0  0  0  0  0  0  0  0  0  0  0  0
   33.1242  -21.0764   37.4570 C   0  0  0  0  0  0  0  0  0  0  0  0
   32.9608  -20.3423   36.3789 C   0  0  0  0  0  0  0  0  0  0  0  0
   33.8400  -19.1611   36.1447 C   0  0  0  0  0  0  0  0  0  0  0  0
   33.0488  -17.9885   35.5919 C   0  0  0  0  0  0  0  0  0  0  0  0
   33.9593  -17.0054   35.2099 O   0  0  0  0  0  0  0  0  0  0  0  0
   32.3545  -18.4718   34.3364 C   0  0  0  0  0  0  0  0  0  0  0  0
   31.2942  -19.4630   34.7588 C   0  0  0  0  0  0  0  0  0  0  0  0
   31.8809  -20.6974   35.3797 C   0  0  0  0  0  0  0  0  0  0  0  0
   32.5545  -21.5720   34.3445 C   0  0  0  0  0  0  0  0  0  0  0  0
   30.0589  -23.1618   37.2249 C   0  0  0  0  0  0  0  0  0  0  0  0
   29.7566  -24.4809   37.6878 C   0  0  0  0  0  0  0  0  0  0  0  0
   28.2463  -24.5697   37.4026 C   0  0  0  0  0  0  0  0  0  0  0  0
   27.9417  -23.4049   36.4449 C   0  0  0  0  0  0  0  0  0  0  0  0
   26.9974  -23.7839   35.4961 O   0  0  0  0  0  0  0  0  0  0  0  0
   34.2743  -16.5382   36.0090 H   0  0  0  0  0  0  0  0  0  0  0  0
   26.4700  -24.5417   35.8976 H   0  0  0  0  0  0  0  0  0  0  0  0
  2  1  1  0  0  0
  2  3  1  0  0  0
  3  4  1  0  0  0
  4  5  1  0  0  0
  5  6  1  0  0  0
  6  7  1  0  0  0
  7  8  2  0  0  0
  8  9  1  0  0  0
  9 10  1  0  0  0
 10 11  1  0  0  0
 10 12  1  0  0  0
 12 13  1  0  0  0
 13 14  1  0  0  0
 14 15  1  0  0  0
  5 16  1  0  0  0
 16 17  1  0  0  0
 17 18  1  0  0  0
 18 19  1  0  0  0
 19 20  1  0  0  0
 16  2  1  0  0  0
 19  2  1  0  0  0
 14  4  1  0  0  0
 14  8  1  0  0  0
 11 21  1  0  0  0
 20 22  1  0  0  0
M  END
> <minimizedAffinity>
-5.03927

> <CNNscore>
0.6989074349

> <CNNaffinity>
4.3548274040

> <CNN_VS>
3.0436213017

> <CNNaffinity_variance>
0.2181555778

$$$$
[H]O[C@]1([H])C([H])([H])C2=C([H])C([H])([H])[C@@]3([H])[C@]4([H])C([H])([H])C([H])([H])[C@]([H])(O[H])[C@@]4(C([H])([H])[H])C([H])([H])[C@]3([H])[C@@]2(C([H])([H])[H])C([H])([H])C1([H])[H]


 22 25  0  0  0  0  0  0  0  0999 V2000
   33.2769  -20.3003   36.4814 C   0  0  0  0  0  0  0  0  0  0  0  0
   32.0546  -20.0925   35.6496 C   0  0  0  0  0  0  0  0  0  0  0  0
   30.8358  -20.6468   36.2662 C   0  0  0  0  0  0  0  0  0  0  0  0
   30.6783  -21.9815   35.6252 C   0  0  0  0  0  0  0  0  0  0  0  0
   31.9711  -22.2417   34.8191 C   0  0  0  0  0  0  0  0  0  0  0  0
   31.6254  -23.3215   33.8516 C   0  0  0  0  0  0  0  0  0  0  0  0
   30.6738  -24.3166   34.3845 C   0  0  0  0  0  0  0  0  0  0  0  0
   30.0676  -24.2719   35.5500 C   0  0  0  0  0  0  0  0  0  0  0  0
   29.1295  -25.3628   35.9413 C   0  0  0  0  0  0  0  0  0  0  0  0
   27.9025  -24.8068   36.6425 C   0  0  0  0  0  0  0  0  0  0  0  0
   27.1821  -25.8843   37.1540 O   0  0  0  0  0  0  0  0  0  0  0  0
   28.3932  -23.9929   37.8208 C   0  0  0  0  0  0  0  0  0  0  0  0
   29.0857  -22.7683   37.2677 C   0  0  0  0  0  0  0  0  0  0  0  0
   30.3225  -23.1136   36.4903 C   0  0  0  0  0  0  0  0  0  0  0  0
   31.4419  -23.5673   37.4022 C   0  0  0  0  0  0  0  0  0  0  0  0
   32.1068  -20.8898   34.3295 C   0  0  0  0  0  0  0  0  0  0  0  0
   33.2660  -20.3429   33.6949 C   0  0  0  0  0  0  0  0  0  0  0  0
   33.0830  -18.8378   33.9616 C   0  0  0  0  0  0  0  0  0  0  0  0
   32.0144  -18.7447   35.0645 C   0  0  0  0  0  0  0  0  0  0  0  0
   32.3136  -17.7160   35.9520 O   0  0  0  0  0  0  0  0  0  0  0  0
   26.6891  -26.3101   36.4247 H   0  0  0  0  0  0  0  0  0  0  0  0
   32.8903  -17.0595   35.4521 H   0  0  0  0  0  0  0  0  0  0  0  0
  2  1  1  0  0  0
  2  3  1  0  0  0
  3  4  1  0  0  0
  4  5  1  0  0  0
  5  6  1  0  0  0
  6  7  1  0  0  0
  7  8  2  0  0  0
  8  9  1  0  0  0
  9 10  1  0  0  0
 10 11  1  0  0  0
 10 12  1  0  0  0
 12 13  1  0  0  0
 13 14  1  0  0  0
 14 15  1  0  0  0
  5 16  1  0  0  0
 16 17  1  0  0  0
 17 18  1  0  0  0
 18 19  1  0  0  0
 19 20  1  0  0  0
 16  2  1  0  0  0
 19  2  1  0  0  0
 14  4  1  0  0  0
 14  8  1  0  0  0
 11 21  1  0  0  0
 20 22  1  0  0  0
M  END
> <minimizedAffinity>
-4.62905

> <CNNscore>
0.6677992940

> <CNNaffinity>
4.2945847511

> <CNN_VS>
2.8679206371

> <CNNaffinity_variance>
0.1898501664

$$$$
[H]O[C@]1([H])C([H])([H])C2=C([H])C([H])([H])[C@@]3([H])[C@]4([H])C([H])([H])C([H])([H])[C@]([H])(O[H])[C@@]4(C([H])([H])[H])C([H])([H])[C@]3([H])[C@@]2(C([H])([H])[H])C([H])([H])C1([H])[H]


 22 25  0  0  0  0  0  0  0  0999 V2000
   36.7238  -17.1362   34.8575 C   0  0  0  0  0  0  0  0  0  0  0  0
   36.7708  -18.5873   34.5095 C   0  0  0  0  0  0  0  0  0  0  0  0
   35.4954  -19.0931   33.9706 C   0  0  0  0  0  0  0  0  0  0  0  0
   34.8204  -19.7062   35.1477 C   0  0  0  0  0  0  0  0  0  0  0  0
   35.6515  -19.3131   36.3900 C   0  0  0  0  0  0  0  0  0  0  0  0
   35.2495  -20.2731   37.4570 C   0  0  0  0  0  0  0  0  0  0  0  0
   33.8257  -20.6601   37.4044 C   0  0  0  0  0  0  0  0  0  0  0  0
   32.9561  -20.3157   36.4808 C   0  0  0  0  0  0  0  0  0  0  0  0
   31.5466  -20.7932   36.5733 C   0  0  0  0  0  0  0  0  0  0  0  0
   31.0121  -21.1947   35.2097 C   0  0  0  0  0  0  0  0  0  0  0  0
   29.6453  -21.4301   35.3428 O   0  0  0  0  0  0  0  0  0  0  0  0
   31.1764  -19.9982   34.2968 C   0  0  0  0  0  0  0  0  0  0  0  0
   32.6579  -19.8044   34.0673 C   0  0  0  0  0  0  0  0  0  0  0  0
   33.3878  -19.4371   35.3266 C   0  0  0  0  0  0  0  0  0  0  0  0
   33.0764  -18.0193   35.7544 C   0  0  0  0  0  0  0  0  0  0  0  0
   36.9390  -19.4796   35.7572 C   0  0  0  0  0  0  0  0  0  0  0  0
   38.1920  -19.0301   36.2802 C   0  0  0  0  0  0  0  0  0  0  0  0
   39.0371  -18.9123   34.9987 C   0  0  0  0  0  0  0  0  0  0  0  0
   38.0277  -18.9480   33.8383 C   0  0  0  0  0  0  0  0  0  0  0  0
   38.4157  -18.0786   32.8237 O   0  0  0  0  0  0  0  0  0  0  0  0
   29.5139  -22.3060   35.7572 H   0  0  0  0  0  0  0  0  0  0  0  0
   39.4121  -17.9612   32.9069 H   0  0  0  0  0  0  0  0  0  0  0  0
  2  1  1  0  0  0
  2  3  1  0  0  0
  3  4  1  0  0  0
  4  5  1  0  0  0
  5  6  1  0  0  0
  6  7  1  0  0  0
  7  8  2  0  0  0
  8  9  1  0  0  0
  9 10  1  0  0  0
 10 11  1  0  0  0
 10 12  1  0  0  0
 12 13  1  0  0  0
 13 14  1  0  0  0
 14 15  1  0  0  0
  5 16  1  0  0  0
 16 17  1  0  0  0
 17 18  1  0  0  0
 18 19  1  0  0  0
 19 20  1  0  0  0
 16  2  1  0  0  0
 19  2  1  0  0  0
 14  4  1  0  0  0
 14  8  1  0  0  0
 11 21  1  0  0  0
 20 22  1  0  0  0
M  END
> <minimizedAffinity>
-6.03513

> <CNNscore>
0.6100143790

> <CNNaffinity>
4.7275953293

> <CNN_VS>
2.8839011192

> <CNNaffinity_variance>
0.1729859412

$$$$
[H]O[C@]1([H])C([H])([H])C2=C([H])C([H])([H])[C@@]3([H])[C@]4([H])C([H])([H])C([H])([H])[C@]([H])(O[H])[C@@]4(C([H])([H])[H])C([H])([H])[C@]3([H])[C@@]2(C([H])([H])[H])C([H])([H])C1([H])[H]


 22 25  0  0  0  0  0  0  0  0999 V2000
   30.7616  -19.4864   34.0919 C   0  0  0  0  0  0  0  0  0  0  0  0
   31.5442  -19.8357   35.3144 C   0  0  0  0  0  0  0  0  0  0  0  0
   32.1128  -18.6565   35.9921 C   0  0  0  0  0  0  0  0  0  0  0  0
   33.5107  -18.5839   35.4848 C   0  0  0  0  0  0  0  0  0  0  0  0
   33.6188  -19.6100   34.3341 C   0  0  0  0  0  0  0  0  0  0  0  0
   35.0785  -19.8498   34.1515 C   0  0  0  0  0  0  0  0  0  0  0  0
   35.9119  -18.6528   34.3796 C   0  0  0  0  0  0  0  0  0  0  0  0
   35.4955  -17.4797   34.8021 C   0  0  0  0  0  0  0  0  0  0  0  0
   36.4708  -16.3664   34.9821 C   0  0  0  0  0  0  0  0  0  0  0  0
   36.1733  -15.5741   36.2431 C   0  0  0  0  0  0  0  0  0  0  0  0
   36.9866  -14.4429   36.2346 O   0  0  0  0  0  0  0  0  0  0  0  0
   34.7394  -15.0988   36.1428 C   0  0  0  0  0  0  0  0  0  0  0  0
   33.8504  -16.3161   36.2563 C   0  0  0  0  0  0  0  0  0  0  0  0
   34.0286  -17.2631   35.1053 C   0  0  0  0  0  0  0  0  0  0  0  0
   33.4266  -16.7081   33.8325 C   0  0  0  0  0  0  0  0  0  0  0  0
   32.8243  -20.6293   34.9787 C   0  0  0  0  0  0  0  0  0  0  0  0
   32.2948  -21.7993   34.3491 C   0  0  0  0  0  0  0  0  0  0  0  0
   31.1079  -22.1354   35.2702 C   0  0  0  0  0  0  0  0  0  0  0  0
   30.8746  -20.8708   36.1148 C   0  0  0  0  0  0  0  0  0  0  0  0
   29.5144  -20.6603   36.3175 O   0  0  0  0  0  0  0  0  0  0  0  0
   37.8920  -14.7022   36.4977 H   0  0  0  0  0  0  0  0  0  0  0  0
   29.0647  -21.5563   36.2246 H   0  0  0  0  0  0  0  0  0  0  0  0
  2  1  1  0  0  0
  2  3  1  0  0  0
  3  4  1  0  0  0
  4  5  1  0  0  0
  5  6  1  0  0  0
  6  7  1  0  0  0
  7  8  2  0  0  0
  8  9  1  0  0  0
  9 10  1  0  0  0
 10 11  1  0  0  0
 10 12  1  0  0  0
 12 13  1  0  0  0
 13 14  1  0  0  0
 14 15  1  0  0  0
  5 16  1  0  0  0
 16 17  1  0  0  0
 17 18  1  0  0  0
 18 19  1  0  0  0
 19 20  1  0  0  0
 16  2  1  0  0  0
 19  2  1  0  0  0
 14  4  1  0  0  0
 14  8  1  0  0  0
 11 21  1  0  0  0
 20 22  1  0  0  0
M  END
> <minimizedAffinity>
-5.02422

> <CNNscore>
0.5995630622

> <CNNaffinity>
4.6030492783

> <CNN_VS>
2.7598183155

> <CNNaffinity_variance>
0.3224026561

$$$$
[H]O[C@]1([H])C([H])([H])C2=C([H])C([H])([H])[C@@]3([H])[C@]4([H])C([H])([H])C([H])([H])[C@]([H])(O[H])[C@@]4(C([H])([H])[H])C([H])([H])[C@]3([H])[C@@]2(C([H])([H])[H])C([H])([H])C1([H])[H]


 22 25  0  0  0  0  0  0  0  0999 V2000
   36.8918  -19.5050   34.8077 C   0  0  0  0  0  0  0  0  0  0  0  0
   36.2281  -19.2782   36.1258 C   0  0  0  0  0  0  0  0  0  0  0  0
   35.1397  -20.2349   36.3960 C   0  0  0  0  0  0  0  0  0  0  0  0
   33.9060  -19.5069   35.9898 C   0  0  0  0  0  0  0  0  0  0  0  0
   34.3675  -18.2197   35.2696 C   0  0  0  0  0  0  0  0  0  0  0  0
   33.1842  -17.3133   35.2788 C   0  0  0  0  0  0  0  0  0  0  0  0
   31.8938  -18.0169   35.1393 C   0  0  0  0  0  0  0  0  0  0  0  0
   31.7133  -19.3185   35.1060 C   0  0  0  0  0  0  0  0  0  0  0  0
   30.3372  -19.8737   34.9596 C   0  0  0  0  0  0  0  0  0  0  0  0
   30.1369  -21.0872   35.8505 C   0  0  0  0  0  0  0  0  0  0  0  0
   28.9157  -21.6656   35.5105 O   0  0  0  0  0  0  0  0  0  0  0  0
   31.2210  -22.0831   35.4973 C   0  0  0  0  0  0  0  0  0  0  0  0
   32.5374  -21.5018   35.9601 C   0  0  0  0  0  0  0  0  0  0  0  0
   32.9016  -20.2492   35.2172 C   0  0  0  0  0  0  0  0  0  0  0  0
   33.3186  -20.5503   33.7939 C   0  0  0  0  0  0  0  0  0  0  0  0
   35.4622  -17.9393   36.1688 C   0  0  0  0  0  0  0  0  0  0  0  0
   36.5071  -16.9891   35.9432 C   0  0  0  0  0  0  0  0  0  0  0  0
   37.6278  -17.5434   36.8415 C   0  0  0  0  0  0  0  0  0  0  0  0
   37.2033  -18.9817   37.1848 C   0  0  0  0  0  0  0  0  0  0  0  0
   38.3084  -19.8264   37.2112 O   0  0  0  0  0  0  0  0  0  0  0  0
   28.1943  -21.1377   35.9067 H   0  0  0  0  0  0  0  0  0  0  0  0
   39.1111  -19.2489   37.4002 H   0  0  0  0  0  0  0  0  0  0  0  0
  2  1  1  0  0  0
  2  3  1  0  0  0
  3  4  1  0  0  0
  4  5  1  0  0  0
  5  6  1  0  0  0
  6  7  1  0  0  0
  7  8  2  0  0  0
  8  9  1  0  0  0
  9 10  1  0  0  0
 10 11  1  0  0  0
 10 12  1  0  0  0
 12 13  1  0  0  0
 13 14  1  0  0  0
 14 15  1  0  0  0
  5 16  1  0  0  0
 16 17  1  0  0  0
 17 18  1  0  0  0
 18 19  1  0  0  0
 19 20  1  0  0  0
 16  2  1  0  0  0
 19  2  1  0  0  0
 14  4  1  0  0  0
 14  8  1  0  0  0
 11 21  1  0  0  0
 20 22  1  0  0  0
M  END
> <minimizedAffinity>
-4.94435

> <CNNscore>
0.5750708580

> <CNNaffinity>
4.3922171593

> <CNN_VS>
2.5258359909

> <CNNaffinity_variance>
0.2062235624

$$$$
[H]O[C@]1([H])C([H])([H])C2=C([H])C([H])([H])[C@@]3([H])[C@]4([H])C([H])([H])C([H])([H])[C@]([H])(O[H])[C@@]4(C([H])([H])[H])C([H])([H])[C@]3([H])[C@@]2(C([H])([H])[H])C([H])([H])C1([H])[H]


 22 25  0  0  0  0  0  0  0  0999 V2000
   31.4336  -19.8706   33.6510 C   0  0  0  0  0  0  0  0  0  0  0  0
   31.4539  -19.4068   35.0700 C   0  0  0  0  0  0  0  0  0  0  0  0
   32.5329  -18.4411   35.3462 C   0  0  0  0  0  0  0  0  0  0  0  0
   33.6277  -19.2724   35.9183 C   0  0  0  0  0  0  0  0  0  0  0  0
   33.2100  -20.7482   35.7275 C   0  0  0  0  0  0  0  0  0  0  0  0
   34.0559  -21.5263   36.6766 C   0  0  0  0  0  0  0  0  0  0  0  0
   35.4192  -20.9843   36.8415 C   0  0  0  0  0  0  0  0  0  0  0  0
   35.8870  -19.8734   36.3172 C   0  0  0  0  0  0  0  0  0  0  0  0
   37.2958  -19.4633   36.5819 C   0  0  0  0  0  0  0  0  0  0  0  0
   37.3969  -17.9665   36.8185 C   0  0  0  0  0  0  0  0  0  0  0  0
   38.7494  -17.6334   36.8531 O   0  0  0  0  0  0  0  0  0  0  0  0
   36.7953  -17.2826   35.6093 C   0  0  0  0  0  0  0  0  0  0  0  0
   35.3089  -17.5571   35.6273 C   0  0  0  0  0  0  0  0  0  0  0  0
   34.9947  -19.0139   35.4478 C   0  0  0  0  0  0  0  0  0  0  0  0
   35.2524  -19.4656   34.0265 C   0  0  0  0  0  0  0  0  0  0  0  0
   31.8169  -20.5433   36.0485 C   0  0  0  0  0  0  0  0  0  0  0  0
   30.7606  -21.4810   35.8237 C   0  0  0  0  0  0  0  0  0  0  0  0
   29.5331  -20.5539   35.7599 C   0  0  0  0  0  0  0  0  0  0  0  0
   30.1007  -19.1358   35.5758 C   0  0  0  0  0  0  0  0  0  0  0  0
   29.2965  -18.3931   34.7171 O   0  0  0  0  0  0  0  0  0  0  0  0
   39.1167  -17.8912   37.7219 H   0  0  0  0  0  0  0  0  0  0  0  0
   28.3765  -18.8003   34.7558 H   0  0  0  0  0  0  0  0  0  0  0  0
  2  1  1  0  0  0
  2  3  1  0  0  0
  3  4  1  0  0  0
  4  5  1  0  0  0
  5  6  1  0  0  0
  6  7  1  0  0  0
  7  8  2  0  0  0
  8  9  1  0  0  0
  9 10  1  0  0  0
 10 11  1  0  0  0
 10 12  1  0  0  0
 12 13  1  0  0  0
 13 14  1  0  0  0
 14 15  1  0  0  0
  5 16  1  0  0  0
 16 17  1  0  0  0
 17 18  1  0  0  0
 18 19  1  0  0  0
 19 20  1  0  0  0
 16  2  1  0  0  0
 19  2  1  0  0  0
 14  4  1  0  0  0
 14  8  1  0  0  0
 11 21  1  0  0  0
 20 22  1  0  0  0
M  END
> <minimizedAffinity>
-5.08481

> <CNNscore>
0.5717079043

> <CNNaffinity>
4.5477280617

> <CNN_VS>
2.5999720097

> <CNNaffinity_variance>
0.1741357446

$$$$
[H]O[C@]1([H])C([H])([H])C2=C([H])C([H])([H])[C@@]3([H])[C@]4([H])C([H])([H])C([H])([H])[C@]([H])(O[H])[C@@]4(C([H])([H])[H])C([H])([H])[C@]3([H])[C@@]2(C([H])([H])[H])C([H])([H])C1([H])[H]


 22 25  0  0  0  0  0  0  0  0999 V2000
   33.6341  -17.8163   36.3304 C   0  0  0  0  0  0  0  0  0  0  0  0
   33.9807  -19.1060   35.6629 C   0  0  0  0  0  0  0  0  0  0  0  0
   35.0972  -19.8124   36.3166 C   0  0  0  0  0  0  0  0  0  0  0  0
   36.2915  -19.4250   35.5164 C   0  0  0  0  0  0  0  0  0  0  0  0
   35.8368  -18.3028   34.5559 C   0  0  0  0  0  0  0  0  0  0  0  0
   36.8754  -18.2487   33.4882 C   0  0  0  0  0  0  0  0  0  0  0  0
   38.2418  -18.5295   33.9715 C   0  0  0  0  0  0  0  0  0  0  0  0
   38.5802  -18.8978   35.1872 C   0  0  0  0  0  0  0  0  0  0  0  0
   40.0135  -19.1439   35.5164 C   0  0  0  0  0  0  0  0  0  0  0  0
   40.1706  -20.3633   36.4079 C   0  0  0  0  0  0  0  0  0  0  0  0
   41.4960  -20.4076   36.8355 O   0  0  0  0  0  0  0  0  0  0  0  0
   39.3097  -20.1343   37.6320 C   0  0  0  0  0  0  0  0  0  0  0  0
   37.8663  -20.1894   37.1865 C   0  0  0  0  0  0  0  0  0  0  0  0
   37.5149  -19.0717   36.2480 C   0  0  0  0  0  0  0  0  0  0  0  0
   37.4384  -17.7443   36.9709 C   0  0  0  0  0  0  0  0  0  0  0  0
   34.5551  -18.8922   34.2467 C   0  0  0  0  0  0  0  0  0  0  0  0
   33.4725  -18.2370   33.5802 C   0  0  0  0  0  0  0  0  0  0  0  0
   32.2659  -19.0584   34.0696 C   0  0  0  0  0  0  0  0  0  0  0  0
   32.7804  -19.8614   35.2769 C   0  0  0  0  0  0  0  0  0  0  0  0
   31.8029  -19.9445   36.2634 O   0  0  0  0  0  0  0  0  0  0  0  0
   42.0519  -20.7506   36.1078 H   0  0  0  0  0  0  0  0  0  0  0  0
   30.9151  -19.8267   35.8035 H   0  0  0  0  0  0  0  0  0  0  0  0
  2  1  1  0  0  0
  2  3  1  0  0  0
  3  4  1  0  0  0
  4  5  1  0  0  0
  5  6  1  0  0  0
  6  7  1  0  0  0
  7  8  2  0  0  0
  8  9  1  0  0  0
  9 10  1  0  0  0
 10 11  1  0  0  0
 10 12  1  0  0  0
 12 13  1  0  0  0
 13 14  1  0  0  0
 14 15  1  0  0  0
  5 16  1  0  0  0
 16 17  1  0  0  0
 17 18  1  0  0  0
 18 19  1  0  0  0
 19 20  1  0  0  0
 16  2  1  0  0  0
 19  2  1  0  0  0
 14  4  1  0  0  0
 14  8  1  0  0  0
 11 21  1  0  0  0
 20 22  1  0  0  0
M  END
> <minimizedAffinity>
-4.78414

> <CNNscore>
0.5427057743

> <CNNaffinity>
4.4118628502

> <CNN_VS>
2.3943433762

> <CNNaffinity_variance>
0.1825742424

$$$$
[H]O[C@]1([H])C([H])([H])C2=C([H])C([H])([H])[C@@]3([H])[C@]4([H])C([H])([H])C([H])([H])[C@]([H])(O[H])[C@@]4(C([H])([H])[H])C([H])([H])[C@]3([H])[C@@]2(C([H])([H])[H])C([H])([H])C1([H])[H]


 22 25  0  0  0  0  0  0  0  0999 V2000
   32.8405  -19.9020   33.8338 C   0  0  0  0  0  0  0  0  0  0  0  0
   32.3238  -19.2963   35.0968 C   0  0  0  0  0  0  0  0  0  0  0  0
   32.7838  -17.9111   35.3028 C   0  0  0  0  0  0  0  0  0  0  0  0
   33.9603  -18.0485   36.2050 C   0  0  0  0  0  0  0  0  0  0  0  0
   34.2757  -19.5588   36.2954 C   0  0  0  0  0  0  0  0  0  0  0  0
   35.1234  -19.7155   37.5114 C   0  0  0  0  0  0  0  0  0  0  0  0
   36.0395  -18.5824   37.7490 C   0  0  0  0  0  0  0  0  0  0  0  0
   36.0933  -17.4637   37.0609 C   0  0  0  0  0  0  0  0  0  0  0  0
   37.0823  -16.4111   37.4314 C   0  0  0  0  0  0  0  0  0  0  0  0
   36.4710  -15.0243   37.3334 C   0  0  0  0  0  0  0  0  0  0  0  0
   37.4983  -14.0963   37.4915 O   0  0  0  0  0  0  0  0  0  0  0  0
   35.9381  -14.8708   35.9247 C   0  0  0  0  0  0  0  0  0  0  0  0
   34.7566  -15.8031   35.7840 C   0  0  0  0  0  0  0  0  0  0  0  0
   35.1514  -17.2470   35.8962 C   0  0  0  0  0  0  0  0  0  0  0  0
   35.9057  -17.7124   34.6695 C   0  0  0  0  0  0  0  0  0  0  0  0
   32.8979  -19.9879   36.3511 C   0  0  0  0  0  0  0  0  0  0  0  0
   32.4335  -21.3312   36.1914 C   0  0  0  0  0  0  0  0  0  0  0  0
   30.9803  -21.1036   35.7368 C   0  0  0  0  0  0  0  0  0  0  0  0
   30.9087  -19.6241   35.3211 C   0  0  0  0  0  0  0  0  0  0  0  0
   30.0912  -19.4668   34.2063 O   0  0  0  0  0  0  0  0  0  0  0  0
   37.7241  -14.0329   38.4408 H   0  0  0  0  0  0  0  0  0  0  0  0
   29.4554  -20.2473   34.1998 H   0  0  0  0  0  0  0  0  0  0  0  0
  2  1  1  0  0  0
  2  3  1  0  0  0
  3  4  1  0  0  0
  4  5  1  0  0  0
  5  6  1  0  0  0
  6  7  1  0  0  0
  7  8  2  0  0  0
  8  9  1  0  0  0
  9 10  1  0  0  0
 10 11  1  0  0  0
 10 12  1  0  0  0
 12 13  1  0  0  0
 13 14  1  0  0  0
 14 15  1  0  0  0
  5 16  1  0  0  0
 16 17  1  0  0  0
 17 18  1  0  0  0
 18 19  1  0  0  0
 19 20  1  0  0  0
 16  2  1  0  0  0
 19  2  1  0  0  0
 14  4  1  0  0  0
 14  8  1  0  0  0
 11 21  1  0  0  0
 20 22  1  0  0  0
M  END
> <minimizedAffinity>
-6.93705

> <CNNscore>
0.5240961909

> <CNNaffinity>
4.4860830307

> <CNN_VS>
2.3511390686

> <CNNaffinity_variance>
0.3653738201

$$$$
[H]Oc1c([H])c([H])c2c(c1[H])C([H])([H])C([H])([H])[C@]1([H])[C@]2([H])C([H])([H])C([H])([H])[C@]2(C([H])([H])[H])[C@](O[H])(C([H])([H])O[H])C([H])([H])C([H])([H])[C@]21[H]


 25 28  0  0  0  0  0  0  0  0999 V2000
   31.3239  -22.1501   37.6975 C   0  0  0  0  0  0  0  0  0  0  0  0
   31.4868  -22.4770   36.2052 C   0  0  0  0  0  0  0  0  0  0  0  0
   32.8914  -22.9069   36.0130 C   0  0  0  0  0  0  0  0  0  0  0  0
   33.7469  -21.7681   36.5830 C   0  0  0  0  0  0  0  0  0  0  0  0
   33.5345  -20.5820   35.6987 C   0  0  0  0  0  0  0  0  0  0  0  0
   32.0875  -20.1028   35.6826 C   0  0  0  0  0  0  0  0  0  0  0  0
   31.9789  -19.1122   34.5422 C   0  0  0  0  0  0  0  0  0  0  0  0
   33.2052  -18.3092   34.2993 C   0  0  0  0  0  0  0  0  0  0  0  0
   34.1492  -18.2426   35.4349 C   0  0  0  0  0  0  0  0  0  0  0  0
   34.8127  -17.0754   35.7438 C   0  0  0  0  0  0  0  0  0  0  0  0
   35.6780  -17.1023   36.8215 C   0  0  0  0  0  0  0  0  0  0  0  0
   36.3580  -15.9194   37.1439 O   0  0  0  0  0  0  0  0  0  0  0  0
   35.8594  -18.2627   37.5504 C   0  0  0  0  0  0  0  0  0  0  0  0
   35.1807  -19.4373   37.2260 C   0  0  0  0  0  0  0  0  0  0  0  0
   34.3320  -19.4017   36.1652 C   0  0  0  0  0  0  0  0  0  0  0  0
   31.1677  -21.2414   35.3786 C   0  0  0  0  0  0  0  0  0  0  0  0
   29.7463  -21.0326   35.7720 C   0  0  0  0  0  0  0  0  0  0  0  0
   29.1973  -22.4594   35.8237 C   0  0  0  0  0  0  0  0  0  0  0  0
   30.4050  -23.3803   35.8240 C   0  0  0  0  0  0  0  0  0  0  0  0
   30.2398  -24.4116   36.7657 O   0  0  0  0  0  0  0  0  0  0  0  0
   37.2725  -15.7443   36.7077 H   0  0  0  0  0  0  0  0  0  0  0  0
   30.6000  -25.2680   36.4125 H   0  0  0  0  0  0  0  0  0  0  0  0
   30.4694  -24.0137   34.4839 C   0  0  0  0  0  0  0  0  0  0  0  0
   29.5087  -24.9659   34.2289 O   0  0  0  0  0  0  0  0  0  0  0  0
   29.9592  -25.8359   34.0111 H   0  0  0  0  0  0  0  0  0  0  0  0
  2  1  1  0  0  0
  2  3  1  0  0  0
  3  4  1  0  0  0
  4  5  1  0  0  0
  5  6  1  0  0  0
  6  7  1  0  0  0
  7  8  1  0  0  0
  8  9  1  0  0  0
  9 10  2  0  0  0
 10 11  1  0  0  0
 11 12  1  0  0  0
 11 13  2  0  0  0
 13 14  1  0  0  0
 14 15  2  0  0  0
  6 16  1  0  0  0
 16 17  1  0  0  0
 17 18  1  0  0  0
 18 19  1  0  0  0
 19 20  1  0  0  0
 19 23  1  0  0  0
 23 24  1  0  0  0
 16  2  1  0  0  0
 19  2  1  0  0  0
 15  5  1  0  0  0
 15  9  1  0  0  0
 12 21  1  0  0  0
 20 22  1  0  0  0
 24 25  1  0  0  0
M  END
> <minimizedAffinity>
-5.88234

> <CNNscore>
0.6427678466

> <CNNaffinity>
4.3918008804

> <CNN_VS>
2.8229084015

> <CNNaffinity_variance>
0.1928056031

$$$$
[H]Oc1c([H])c([H])c2c(c1[H])C([H])([H])C([H])([H])[C@]1([H])[C@]2([H])C([H])([H])C([H])([H])[C@]2(C([H])([H])[H])[C@](O[H])(C([H])([H])O[H])C([H])([H])C([H])([H])[C@]21[H]


 25 28  0  0  0  0  0  0  0  0999 V2000
   37.5300  -17.7690   35.9718 C   0  0  0  0  0  0  0  0  0  0  0  0
   37.8387  -19.1827   35.4555 C   0  0  0  0  0  0  0  0  0  0  0  0
   37.3586  -19.2403   34.0552 C   0  0  0  0  0  0  0  0  0  0  0  0
   35.8853  -18.8167   34.1127 C   0  0  0  0  0  0  0  0  0  0  0  0
   35.1561  -19.8844   34.8624 C   0  0  0  0  0  0  0  0  0  0  0  0
   35.6428  -20.0420   36.2984 C   0  0  0  0  0  0  0  0  0  0  0  0
   35.0321  -21.3271   36.8173 C   0  0  0  0  0  0  0  0  0  0  0  0
   33.6836  -21.6359   36.2755 C   0  0  0  0  0  0  0  0  0  0  0  0
   32.9542  -20.4823   35.7075 C   0  0  0  0  0  0  0  0  0  0  0  0
   31.5987  -20.3296   35.9011 C   0  0  0  0  0  0  0  0  0  0  0  0
   30.9964  -19.2222   35.3337 C   0  0  0  0  0  0  0  0  0  0  0  0
   29.6174  -19.0579   35.5250 O   0  0  0  0  0  0  0  0  0  0  0  0
   31.7390  -18.3132   34.6035 C   0  0  0  0  0  0  0  0  0  0  0  0
   33.1109  -18.4809   34.4157 C   0  0  0  0  0  0  0  0  0  0  0  0
   33.6946  -19.5721   34.9771 C   0  0  0  0  0  0  0  0  0  0  0  0
   37.1285  -20.2062   36.3271 C   0  0  0  0  0  0  0  0  0  0  0  0
   37.7746  -19.9163   37.6375 C   0  0  0  0  0  0  0  0  0  0  0  0
   39.2325  -19.6673   37.2472 C   0  0  0  0  0  0  0  0  0  0  0  0
   39.2419  -19.4673   35.7417 C   0  0  0  0  0  0  0  0  0  0  0  0
   40.0682  -18.3845   35.3921 O   0  0  0  0  0  0  0  0  0  0  0  0
   28.9735  -19.4735   34.8395 H   0  0  0  0  0  0  0  0  0  0  0  0
   40.5682  -18.5825   34.5562 H   0  0  0  0  0  0  0  0  0  0  0  0
   39.8383  -20.6875   35.1444 C   0  0  0  0  0  0  0  0  0  0  0  0
   40.7350  -20.4725   34.1224 O   0  0  0  0  0  0  0  0  0  0  0  0
   40.4100  -20.9419   33.2971 H   0  0  0  0  0  0  0  0  0  0  0  0
  2  1  1  0  0  0
  2  3  1  0  0  0
  3  4  1  0  0  0
  4  5  1  0  0  0
  5  6  1  0  0  0
  6  7  1  0  0  0
  7  8  1  0  0  0
  8  9  1  0  0  0
  9 10  2  0  0  0
 10 11  1  0  0  0
 11 12  1  0  0  0
 11 13  2  0  0  0
 13 14  1  0  0  0
 14 15  2  0  0  0
  6 16  1  0  0  0
 16 17  1  0  0  0
 17 18  1  0  0  0
 18 19  1  0  0  0
 19 20  1  0  0  0
 19 23  1  0  0  0
 23 24  1  0  0  0
 16  2  1  0  0  0
 19  2  1  0  0  0
 15  5  1  0  0  0
 15  9  1  0  0  0
 12 21  1  0  0  0
 20 22  1  0  0  0
 24 25  1  0  0  0
M  END
> <minimizedAffinity>
-5.02753

> <CNNscore>
0.5892397761

> <CNNaffinity>
4.6790981293

> <CNN_VS>
2.7571108341

> <CNNaffinity_variance>
0.0660475641

$$$$
[H]Oc1c([H])c([H])c2c(c1[H])C([H])([H])C([H])([H])[C@]1([H])[C@]2([H])C([H])([H])C([H])([H])[C@]2(C([H])([H])[H])[C@](O[H])(C([H])([H])O[H])C([H])([H])C([H])([H])[C@]21[H]


 25 28  0  0  0  0  0  0  0  0999 V2000
   34.3769  -17.0104   35.9010 C   0  0  0  0  0  0  0  0  0  0  0  0
   35.2167  -18.1619   35.3275 C   0  0  0  0  0  0  0  0  0  0  0  0
   34.6003  -18.5369   34.0336 C   0  0  0  0  0  0  0  0  0  0  0  0
   33.1286  -18.8287   34.3537 C   0  0  0  0  0  0  0  0  0  0  0  0
   33.1060  -20.0520   35.2121 C   0  0  0  0  0  0  0  0  0  0  0  0
   33.8333  -19.8622   36.5384 C   0  0  0  0  0  0  0  0  0  0  0  0
   33.9775  -21.2415   37.1470 C   0  0  0  0  0  0  0  0  0  0  0  0
   32.8571  -22.1709   36.8496 C   0  0  0  0  0  0  0  0  0  0  0  0
   31.5969  -21.5231   36.4282 C   0  0  0  0  0  0  0  0  0  0  0  0
   30.3750  -21.9912   36.8594 C   0  0  0  0  0  0  0  0  0  0  0  0
   29.2471  -21.3263   36.4158 C   0  0  0  0  0  0  0  0  0  0  0  0
   27.9989  -21.7951   36.8490 O   0  0  0  0  0  0  0  0  0  0  0  0
   29.3578  -20.2362   35.5730 C   0  0  0  0  0  0  0  0  0  0  0  0
   30.6019  -19.7734   35.1445 C   0  0  0  0  0  0  0  0  0  0  0  0
   31.7052  -20.4329   35.5855 C   0  0  0  0  0  0  0  0  0  0  0  0
   35.2097  -19.3283   36.3029 C   0  0  0  0  0  0  0  0  0  0  0  0
   35.8492  -18.6783   37.4808 C   0  0  0  0  0  0  0  0  0  0  0  0
   36.9433  -17.8219   36.8410 C   0  0  0  0  0  0  0  0  0  0  0  0
   36.6179  -17.7531   35.3591 C   0  0  0  0  0  0  0  0  0  0  0  0
   36.7825  -16.4422   34.8774 O   0  0  0  0  0  0  0  0  0  0  0  0
   27.5195  -22.5086   36.2848 H   0  0  0  0  0  0  0  0  0  0  0  0
   37.1761  -16.4524   33.9648 H   0  0  0  0  0  0  0  0  0  0  0  0
   37.6063  -18.6079   34.6566 C   0  0  0  0  0  0  0  0  0  0  0  0
   37.9244  -18.2195   33.3748 O   0  0  0  0  0  0  0  0  0  0  0  0
   37.7092  -18.9686   32.7425 H   0  0  0  0  0  0  0  0  0  0  0  0
  2  1  1  0  0  0
  2  3  1  0  0  0
  3  4  1  0  0  0
  4  5  1  0  0  0
  5  6  1  0  0  0
  6  7  1  0  0  0
  7  8  1  0  0  0
  8  9  1  0  0  0
  9 10  2  0  0  0
 10 11  1  0  0  0
 11 12  1  0  0  0
 11 13  2  0  0  0
 13 14  1  0  0  0
 14 15  2  0  0  0
  6 16  1  0  0  0
 16 17  1  0  0  0
 17 18  1  0  0  0
 18 19  1  0  0  0
 19 20  1  0  0  0
 19 23  1  0  0  0
 23 24  1  0  0  0
 16  2  1  0  0  0
 19  2  1  0  0  0
 15  5  1  0  0  0
 15  9  1  0  0  0
 12 21  1  0  0  0
 20 22  1  0  0  0
 24 25  1  0  0  0
M  END
> <minimizedAffinity>
-6.64849

> <CNNscore>
0.5661830902

> <CNNaffinity>
4.5876350403

> <CNN_VS>
2.5974414349

> <CNNaffinity_variance>
0.3068962395

$$$$
[H]Oc1c([H])c([H])c2c(c1[H])C([H])([H])C([H])([H])[C@]1([H])[C@]2([H])C([H])([H])C([H])([H])[C@]2(C([H])([H])[H])[C@](O[H])(C([H])([H])O[H])C([H])([H])C([H])([H])[C@]21[H]


 25 28  0  0  0  0  0  0  0  0999 V2000
   31.8234  -22.3568   34.5581 C   0  0  0  0  0  0  0  0  0  0  0  0
   31.2223  -21.5237   35.7004 C   0  0  0  0  0  0  0  0  0  0  0  0
   31.0569  -20.1455   35.1827 C   0  0  0  0  0  0  0  0  0  0  0  0
   32.4420  -19.7367   34.6649 C   0  0  0  0  0  0  0  0  0  0  0  0
   33.3402  -19.6446   35.8559 C   0  0  0  0  0  0  0  0  0  0  0  0
   33.4990  -20.9733   36.5860 C   0  0  0  0  0  0  0  0  0  0  0  0
   34.1765  -20.6578   37.9034 C   0  0  0  0  0  0  0  0  0  0  0  0
   35.1410  -19.5289   37.8500 C   0  0  0  0  0  0  0  0  0  0  0  0
   35.6424  -19.1927   36.5007 C   0  0  0  0  0  0  0  0  0  0  0  0
   36.9590  -18.8427   36.2955 C   0  0  0  0  0  0  0  0  0  0  0  0
   37.3427  -18.5427   35.0017 C   0  0  0  0  0  0  0  0  0  0  0  0
   38.6805  -18.1854   34.7825 O   0  0  0  0  0  0  0  0  0  0  0  0
   36.4290  -18.5963   33.9657 C   0  0  0  0  0  0  0  0  0  0  0  0
   35.0989  -18.9522   34.1886 C   0  0  0  0  0  0  0  0  0  0  0  0
   34.7307  -19.2457   35.4633 C   0  0  0  0  0  0  0  0  0  0  0  0
   32.1584  -21.5568   36.8980 C   0  0  0  0  0  0  0  0  0  0  0  0
   32.1528  -23.0185   37.1847 C   0  0  0  0  0  0  0  0  0  0  0  0
   30.6895  -23.4015   36.9564 C   0  0  0  0  0  0  0  0  0  0  0  0
   30.0567  -22.2393   36.2111 C   0  0  0  0  0  0  0  0  0  0  0  0
   29.2416  -22.7079   35.1653 O   0  0  0  0  0  0  0  0  0  0  0  0
   38.9401  -17.1924   34.8451 H   0  0  0  0  0  0  0  0  0  0  0  0
   28.4211  -22.1526   35.0863 H   0  0  0  0  0  0  0  0  0  0  0  0
   29.1757  -21.5333   37.1737 C   0  0  0  0  0  0  0  0  0  0  0  0
   29.0612  -22.1177   38.4148 O   0  0  0  0  0  0  0  0  0  0  0  0
   28.0956  -22.3273   38.5905 H   0  0  0  0  0  0  0  0  0  0  0  0
  2  1  1  0  0  0
  2  3  1  0  0  0
  3  4  1  0  0  0
  4  5  1  0  0  0
  5  6  1  0  0  0
  6  7  1  0  0  0
  7  8  1  0  0  0
  8  9  1  0  0  0
  9 10  2  0  0  0
 10 11  1  0  0  0
 11 12  1  0  0  0
 11 13  2  0  0  0
 13 14  1  0  0  0
 14 15  2  0  0  0
  6 16  1  0  0  0
 16 17  1  0  0  0
 17 18  1  0  0  0
 18 19  1  0  0  0
 19 20  1  0  0  0
 19 23  1  0  0  0
 23 24  1  0  0  0
 16  2  1  0  0  0
 19  2  1  0  0  0
 15  5  1  0  0  0
 15  9  1  0  0  0
 12 21  1  0  0  0
 20 22  1  0  0  0
 24 25  1  0  0  0
M  END
> <minimizedAffinity>
-5.95049

> <CNNscore>
0.5560947657

> <CNNaffinity>
4.4028549194

> <CNN_VS>
2.4484045506

> <CNNaffinity_variance>
0.2157991230

$$$$
[H]Oc1c([H])c([H])c2c(c1[H])C([H])([H])C([H])([H])[C@]1([H])[C@]2([H])C([H])([H])C([H])([H])[C@]2(C([H])([H])[H])[C@](O[H])(C([H])([H])O[H])C([H])([H])C([H])([H])[C@]21[H]


 25 28  0  0  0  0  0  0  0  0999 V2000
   35.7758  -20.5984   39.2739 C   0  0  0  0  0  0  0  0  0  0  0  0
   35.8482  -21.1472   37.8408 C   0  0  0  0  0  0  0  0  0  0  0  0
   37.0795  -20.5920   37.2324 C   0  0  0  0  0  0  0  0  0  0  0  0
   36.9660  -19.0713   37.4004 C   0  0  0  0  0  0  0  0  0  0  0  0
   35.8241  -18.6248   36.5456 C   0  0  0  0  0  0  0  0  0  0  0  0
   34.4912  -19.2321   36.9680 C   0  0  0  0  0  0  0  0  0  0  0  0
   33.5119  -18.9288   35.8532 C   0  0  0  0  0  0  0  0  0  0  0  0
   33.7424  -17.6350   35.1601 C   0  0  0  0  0  0  0  0  0  0  0  0
   34.5480  -16.6516   35.9146 C   0  0  0  0  0  0  0  0  0  0  0  0
   34.2356  -15.3099   35.8974 C   0  0  0  0  0  0  0  0  0  0  0  0
   35.0427  -14.4600   36.6304 C   0  0  0  0  0  0  0  0  0  0  0  0
   34.7331  -13.0927   36.6193 O   0  0  0  0  0  0  0  0  0  0  0  0
   36.1172  -14.9527   37.3470 C   0  0  0  0  0  0  0  0  0  0  0  0
   36.4216  -16.3139   37.3550 C   0  0  0  0  0  0  0  0  0  0  0  0
   35.6228  -17.1420   36.6319 C   0  0  0  0  0  0  0  0  0  0  0  0
   34.6086  -20.7189   37.0715 C   0  0  0  0  0  0  0  0  0  0  0  0
   33.5580  -21.3837   37.8919 C   0  0  0  0  0  0  0  0  0  0  0  0
   34.1972  -22.7314   38.2311 C   0  0  0  0  0  0  0  0  0  0  0  0
   35.6746  -22.5954   37.9066 C   0  0  0  0  0  0  0  0  0  0  0  0
   36.4589  -23.1618   38.9272 O   0  0  0  0  0  0  0  0  0  0  0  0
   35.1576  -12.4989   35.8952 H   0  0  0  0  0  0  0  0  0  0  0  0
   37.2459  -23.6317   38.5428 H   0  0  0  0  0  0  0  0  0  0  0  0
   35.9230  -23.3810   36.6727 C   0  0  0  0  0  0  0  0  0  0  0  0
   34.8953  -24.2061   36.2756 O   0  0  0  0  0  0  0  0  0  0  0  0
   35.2298  -25.1516   36.2382 H   0  0  0  0  0  0  0  0  0  0  0  0
  2  1  1  0  0  0
  2  3  1  0  0  0
  3  4  1  0  0  0
  4  5  1  0  0  0
  5  6  1  0  0  0
  6  7  1  0  0  0
  7  8  1  0  0  0
  8  9  1  0  0  0
  9 10  2  0  0  0
 10 11  1  0  0  0
 11 12  1  0  0  0
 11 13  2  0  0  0
 13 14  1  0  0  0
 14 15  2  0  0  0
  6 16  1  0  0  0
 16 17  1  0  0  0
 17 18  1  0  0  0
 18 19  1  0  0  0
 19 20  1  0  0  0
 19 23  1  0  0  0
 23 24  1  0  0  0
 16  2  1  0  0  0
 19  2  1  0  0  0
 15  5  1  0  0  0
 15  9  1  0  0  0
 12 21  1  0  0  0
 20 22  1  0  0  0
 24 25  1  0  0  0
M  END
> <minimizedAffinity>
-5.95149

> <CNNscore>
0.5114918947

> <CNNaffinity>
4.4535007477

> <CNN_VS>
2.2779295444

> <CNNaffinity_variance>
0.1346697062

$$$$
[H]Oc1c([H])c([H])c2c(c1[H])C([H])([H])C([H])([H])[C@]1([H])[C@]2([H])C([H])([H])C([H])([H])[C@]2(C([H])([H])[H])[C@](O[H])(C([H])([H])O[H])C([H])([H])C([H])([H])[C@]21[H]


 25 28  0  0  0  0  0  0  0  0999 V2000
   36.6256  -20.0174   35.7883 C   0  0  0  0  0  0  0  0  0  0  0  0
   35.9608  -18.6675   36.0979 C   0  0  0  0  0  0  0  0  0  0  0  0
   35.4310  -18.7589   37.4784 C   0  0  0  0  0  0  0  0  0  0  0  0
   34.5357  -20.0047   37.4887 C   0  0  0  0  0  0  0  0  0  0  0  0
   33.3716  -19.7093   36.5991 C   0  0  0  0  0  0  0  0  0  0  0  0
   33.7779  -19.4503   35.1529 C   0  0  0  0  0  0  0  0  0  0  0  0
   32.5548  -18.8862   34.4605 C   0  0  0  0  0  0  0  0  0  0  0  0
   31.2597  -19.4164   34.9599 C   0  0  0  0  0  0  0  0  0  0  0  0
   31.3440  -20.6996   35.6889 C   0  0  0  0  0  0  0  0  0  0  0  0
   30.3872  -21.6773   35.5255 C   0  0  0  0  0  0  0  0  0  0  0  0
   30.5433  -22.8462   36.2468 C   0  0  0  0  0  0  0  0  0  0  0  0
   29.5748  -23.8473   36.0874 O   0  0  0  0  0  0  0  0  0  0  0  0
   31.6225  -23.0121   37.0945 C   0  0  0  0  0  0  0  0  0  0  0  0
   32.5836  -22.0133   37.2499 C   0  0  0  0  0  0  0  0  0  0  0  0
   32.4223  -20.8677   36.5370 C   0  0  0  0  0  0  0  0  0  0  0  0
   34.8487  -18.4087   35.0939 C   0  0  0  0  0  0  0  0  0  0  0  0
   35.6438  -18.3853   33.8345 C   0  0  0  0  0  0  0  0  0  0  0  0
   36.9104  -17.6346   34.2490 C   0  0  0  0  0  0  0  0  0  0  0  0
   36.9145  -17.6125   35.7675 C   0  0  0  0  0  0  0  0  0  0  0  0
   38.1977  -17.9053   36.2626 O   0  0  0  0  0  0  0  0  0  0  0  0
   28.7569  -23.8429   36.7105 H   0  0  0  0  0  0  0  0  0  0  0  0
   38.4002  -17.3471   37.0597 H   0  0  0  0  0  0  0  0  0  0  0  0
   36.5876  -16.2263   36.1833 C   0  0  0  0  0  0  0  0  0  0  0  0
   37.4969  -15.6276   37.0257 O   0  0  0  0  0  0  0  0  0  0  0  0
   37.0320  -15.3629   37.8749 H   0  0  0  0  0  0  0  0  0  0  0  0
  2  1  1  0  0  0
  2  3  1  0  0  0
  3  4  1  0  0  0
  4  5  1  0  0  0
  5  6  1  0  0  0
  6  7  1  0  0  0
  7  8  1  0  0  0
  8  9  1  0  0  0
  9 10  2  0  0  0
 10 11  1  0  0  0
 11 12  1  0  0  0
 11 13  2  0  0  0
 13 14  1  0  0  0
 14 15  2  0  0  0
  6 16  1  0  0  0
 16 17  1  0  0  0
 17 18  1  0  0  0
 18 19  1  0  0  0
 19 20  1  0  0  0
 19 23  1  0  0  0
 23 24  1  0  0  0
 16  2  1  0  0  0
 19  2  1  0  0  0
 15  5  1  0  0  0
 15  9  1  0  0  0
 12 21  1  0  0  0
 20 22  1  0  0  0
 24 25  1  0  0  0
M  END
> <minimizedAffinity>
-6.31455

> <CNNscore>
0.5015998483

> <CNNaffinity>
4.4729003906

> <CNN_VS>
2.2436060905

> <CNNaffinity_variance>
0.2360850573

$$$$
[H]Oc1c([H])c([H])c2c(c1[H])C([H])([H])C([H])([H])[C@]1([H])[C@]2([H])C([H])([H])C([H])([H])[C@]2(C([H])([H])[H])[C@](O[H])(C([H])([H])O[H])C([H])([H])C([H])([H])[C@]21[H]


 25 28  0  0  0  0  0  0  0  0999 V2000
   31.8740  -22.5072   34.2450 C   0  0  0  0  0  0  0  0  0  0  0  0
   31.3009  -22.4682   35.6698 C   0  0  0  0  0  0  0  0  0  0  0  0
   30.6564  -21.1446   35.8348 C   0  0  0  0  0  0  0  0  0  0  0  0
   31.7404  -20.1177   35.4824 C   0  0  0  0  0  0  0  0  0  0  0  0
   32.7931  -20.2190   36.5384 C   0  0  0  0  0  0  0  0  0  0  0  0
   33.4595  -21.5892   36.5855 C   0  0  0  0  0  0  0  0  0  0  0  0
   34.2671  -21.6271   37.8661 C   0  0  0  0  0  0  0  0  0  0  0  0
   34.8455  -20.3206   38.2735 C   0  0  0  0  0  0  0  0  0  0  0  0
   34.9559  -19.3170   37.1937 C   0  0  0  0  0  0  0  0  0  0  0  0
   36.0537  -18.4903   37.0974 C   0  0  0  0  0  0  0  0  0  0  0  0
   36.0746  -17.5800   36.0572 C   0  0  0  0  0  0  0  0  0  0  0  0
   37.1876  -16.7342   35.9506 O   0  0  0  0  0  0  0  0  0  0  0  0
   35.0271  -17.5143   35.1576 C   0  0  0  0  0  0  0  0  0  0  0  0
   33.9217  -18.3578   35.2676 C   0  0  0  0  0  0  0  0  0  0  0  0
   33.9097  -19.2496   36.2929 C   0  0  0  0  0  0  0  0  0  0  0  0
   32.4257  -22.6656   36.6736 C   0  0  0  0  0  0  0  0  0  0  0  0
   32.8874  -24.0243   36.2740 C   0  0  0  0  0  0  0  0  0  0  0  0
   31.5755  -24.7525   35.9765 C   0  0  0  0  0  0  0  0  0  0  0  0
   30.5077  -23.6781   35.8666 C   0  0  0  0  0  0  0  0  0  0  0  0
   29.6675  -23.9272   34.7668 O   0  0  0  0  0  0  0  0  0  0  0  0
   37.1650  -15.8291   36.4379 H   0  0  0  0  0  0  0  0  0  0  0  0
   28.7253  -23.7020   34.9892 H   0  0  0  0  0  0  0  0  0  0  0  0
   29.6719  -23.7689   37.0891 C   0  0  0  0  0  0  0  0  0  0  0  0
   28.3140  -23.6602   36.8910 O   0  0  0  0  0  0  0  0  0  0  0  0
   27.9661  -22.8842   37.4239 H   0  0  0  0  0  0  0  0  0  0  0  0
  2  1  1  0  0  0
  2  3  1  0  0  0
  3  4  1  0  0  0
  4  5  1  0  0  0
  5  6  1  0  0  0
  6  7  1  0  0  0
  7  8  1  0  0  0
  8  9  1  0  0  0
  9 10  2  0  0  0
 10 11  1  0  0  0
 11 12  1  0  0  0
 11 13  2  0  0  0
 13 14  1  0  0  0
 14 15  2  0  0  0
  6 16  1  0  0  0
 16 17  1  0  0  0
 17 18  1  0  0  0
 18 19  1  0  0  0
 19 20  1  0  0  0
 19 23  1  0  0  0
 23 24  1  0  0  0
 16  2  1  0  0  0
 19  2  1  0  0  0
 15  5  1  0  0  0
 15  9  1  0  0  0
 12 21  1  0  0  0
 20 22  1  0  0  0
 24 25  1  0  0  0
M  END
> <minimizedAffinity>
-5.27744

> <CNNscore>
0.4530668855

> <CNNaffinity>
4.1150116920

> <CNN_VS>
1.8643754721

> <CNNaffinity_variance>
0.1515765637

$$$$
[H]Oc1c([H])c([H])c2c(c1[H])C([H])([H])C([H])([H])[C@]1([H])[C@]2([H])C([H])([H])C([H])([H])[C@]2(C([H])([H])[H])[C@](O[H])(C([H])([H])O[H])C([H])([H])C([H])([H])[C@]21[H]


 25 28  0  0  0  0  0  0  0  0999 V2000
   37.2067  -19.4437   34.0378 C   0  0  0  0  0  0  0  0  0  0  0  0
   37.4001  -19.8336   35.5111 C   0  0  0  0  0  0  0  0  0  0  0  0
   36.0547  -20.1337   36.0538 C   0  0  0  0  0  0  0  0  0  0  0  0
   35.2101  -18.8873   35.7592 C   0  0  0  0  0  0  0  0  0  0  0  0
   35.7712  -17.7776   36.5882 C   0  0  0  0  0  0  0  0  0  0  0  0
   37.2166  -17.4439   36.2367 C   0  0  0  0  0  0  0  0  0  0  0  0
   37.7231  -16.5321   37.3348 C   0  0  0  0  0  0  0  0  0  0  0  0
   36.6959  -15.6273   37.9126 C   0  0  0  0  0  0  0  0  0  0  0  0
   35.5037  -15.4070   37.0668 C   0  0  0  0  0  0  0  0  0  0  0  0
   34.9139  -14.1653   36.9745 C   0  0  0  0  0  0  0  0  0  0  0  0
   33.8020  -14.0488   36.1614 C   0  0  0  0  0  0  0  0  0  0  0  0
   33.1945  -12.7893   36.0608 O   0  0  0  0  0  0  0  0  0  0  0  0
   33.3135  -15.1446   35.4748 C   0  0  0  0  0  0  0  0  0  0  0  0
   33.9211  -16.3959   35.5780 C   0  0  0  0  0  0  0  0  0  0  0  0
   35.0135  -16.5012   36.3793 C   0  0  0  0  0  0  0  0  0  0  0  0
   38.0542  -18.6819   36.2579 C   0  0  0  0  0  0  0  0  0  0  0  0
   39.3398  -18.5922   35.5109 C   0  0  0  0  0  0  0  0  0  0  0  0
   39.6983  -20.0610   35.2785 C   0  0  0  0  0  0  0  0  0  0  0  0
   38.4389  -20.8579   35.5705 C   0  0  0  0  0  0  0  0  0  0  0  0
   38.2421  -21.8477   34.5912 O   0  0  0  0  0  0  0  0  0  0  0  0
   32.4483  -12.5494   36.7263 H   0  0  0  0  0  0  0  0  0  0  0  0
   37.8945  -22.6826   35.0034 H   0  0  0  0  0  0  0  0  0  0  0  0
   38.6543  -21.5537   36.8631 C   0  0  0  0  0  0  0  0  0  0  0  0
   39.9624  -21.6366   37.2835 O   0  0  0  0  0  0  0  0  0  0  0  0
   40.2097  -22.6027   37.3968 H   0  0  0  0  0  0  0  0  0  0  0  0
  2  1  1  0  0  0
  2  3  1  0  0  0
  3  4  1  0  0  0
  4  5  1  0  0  0
  5  6  1  0  0  0
  6  7  1  0  0  0
  7  8  1  0  0  0
  8  9  1  0  0  0
  9 10  2  0  0  0
 10 11  1  0  0  0
 11 12  1  0  0  0
 11 13  2  0  0  0
 13 14  1  0  0  0
 14 15  2  0  0  0
  6 16  1  0  0  0
 16 17  1  0  0  0
 17 18  1  0  0  0
 18 19  1  0  0  0
 19 20  1  0  0  0
 19 23  1  0  0  0
 23 24  1  0  0  0
 16  2  1  0  0  0
 19  2  1  0  0  0
 15  5  1  0  0  0
 15  9  1  0  0  0
 12 21  1  0  0  0
 20 22  1  0  0  0
 24 25  1  0  0  0
M  END
> <minimizedAffinity>
-5.24464

> <CNNscore>
0.4350563884

> <CNNaffinity>
4.4887022972

> <CNN_VS>
1.9528386593

> <CNNaffinity_variance>
0.0350458995

$$$$
[H]Oc1c([H])c([H])c2c(c1[H])C([H])([H])C([H])([H])[C@]1([H])[C@]2([H])C([H])([H])C([H])([H])[C@]2(C([H])([H])[H])[C@](O[H])(C([H])([H])O[H])C([H])([H])C([H])([H])[C@]21[H]


 25 28  0  0  0  0  0  0  0  0999 V2000
   38.6598  -21.1497   35.1810 C   0  0  0  0  0  0  0  0  0  0  0  0
   39.0724  -19.8937   35.9636 C   0  0  0  0  0  0  0  0  0  0  0  0
   38.5217  -20.0423   37.3309 C   0  0  0  0  0  0  0  0  0  0  0  0
   37.0203  -20.2925   37.1396 C   0  0  0  0  0  0  0  0  0  0  0  0
   36.4399  -19.0360   36.5756 C   0  0  0  0  0  0  0  0  0  0  0  0
   37.0197  -18.6712   35.2137 C   0  0  0  0  0  0  0  0  0  0  0  0
   36.5647  -17.2565   34.9214 C   0  0  0  0  0  0  0  0  0  0  0  0
   35.2233  -16.9127   35.4599 C   0  0  0  0  0  0  0  0  0  0  0  0
   34.3563  -18.0679   35.7744 C   0  0  0  0  0  0  0  0  0  0  0  0
   33.0055  -18.0407   35.5045 C   0  0  0  0  0  0  0  0  0  0  0  0
   32.2692  -19.1640   35.8318 C   0  0  0  0  0  0  0  0  0  0  0  0
   30.8938  -19.1461   35.5611 O   0  0  0  0  0  0  0  0  0  0  0  0
   32.8792  -20.2631   36.4068 C   0  0  0  0  0  0  0  0  0  0  0  0
   34.2480  -20.2764   36.6744 C   0  0  0  0  0  0  0  0  0  0  0  0
   34.9640  -19.1681   36.3493 C   0  0  0  0  0  0  0  0  0  0  0  0
   38.5135  -18.6602   35.2724 C   0  0  0  0  0  0  0  0  0  0  0  0
   39.2020  -18.7725   33.9563 C   0  0  0  0  0  0  0  0  0  0  0  0
   40.6051  -19.2389   34.3482 C   0  0  0  0  0  0  0  0  0  0  0  0
   40.5102  -19.7096   35.7890 C   0  0  0  0  0  0  0  0  0  0  0  0
   41.2084  -20.9181   35.9611 O   0  0  0  0  0  0  0  0  0  0  0  0
   30.2549  -18.7974   36.2873 H   0  0  0  0  0  0  0  0  0  0  0  0
   41.6770  -20.9289   36.8376 H   0  0  0  0  0  0  0  0  0  0  0  0
   41.1857  -18.6875   36.6259 C   0  0  0  0  0  0  0  0  0  0  0  0
   41.8373  -17.6899   35.9366 O   0  0  0  0  0  0  0  0  0  0  0  0
   42.8065  -17.6908   36.1971 H   0  0  0  0  0  0  0  0  0  0  0  0
  2  1  1  0  0  0
  2  3  1  0  0  0
  3  4  1  0  0  0
  4  5  1  0  0  0
  5  6  1  0  0  0
  6  7  1  0  0  0
  7  8  1  0  0  0
  8  9  1  0  0  0
  9 10  2  0  0  0
 10 11  1  0  0  0
 11 12  1  0  0  0
 11 13  2  0  0  0
 13 14  1  0  0  0
 14 15  2  0  0  0
  6 16  1  0  0  0
 16 17  1  0  0  0
 17 18  1  0  0  0
 18 19  1  0  0  0
 19 20  1  0  0  0
 19 23  1  0  0  0
 23 24  1  0  0  0
 16  2  1  0  0  0
 19  2  1  0  0  0
 15  5  1  0  0  0
 15  9  1  0  0  0
 12 21  1  0  0  0
 20 22  1  0  0  0
 24 25  1  0  0  0
M  END
> <minimizedAffinity>
-6.23505

> <CNNscore>
0.4295629859

> <CNNaffinity>
4.4748725891

> <CNN_VS>
1.9222396612

> <CNNaffinity_variance>
0.0639175251

$$$$
[H]Oc1c([H])c([H])c2c(c1[H])C([H])([H])C([H])([H])[C@]1([H])[C@]2([H])C([H])([H])C([H])([H])[C@]2(C([H])([H])[H])C(=O)C([H])([H])C([H])([H])[C@]21[H]


 21 24  0  0  0  0  0  0  0  0999 V2000
   34.8151  -19.5194   34.1571 C   0  0  0  0  0  0  0  0  0  0  0  0
   34.7514  -19.1551   35.6109 C   0  0  0  0  0  0  0  0  0  0  0  0
   34.8249  -20.3531   36.4814 C   0  0  0  0  0  0  0  0  0  0  0  0
   33.6539  -21.2507   36.2555 C   0  0  0  0  0  0  0  0  0  0  0  0
   32.3600  -20.5195   36.4431 C   0  0  0  0  0  0  0  0  0  0  0  0
   32.3328  -19.2933   35.5193 C   0  0  0  0  0  0  0  0  0  0  0  0
   30.9785  -18.6735   35.5545 C   0  0  0  0  0  0  0  0  0  0  0  0
   30.0267  -19.6261   34.8353 C   0  0  0  0  0  0  0  0  0  0  0  0
   30.0898  -20.9426   35.5203 C   0  0  0  0  0  0  0  0  0  0  0  0
   28.9925  -21.7717   35.3843 C   0  0  0  0  0  0  0  0  0  0  0  0
   28.9393  -23.0219   35.9785 C   0  0  0  0  0  0  0  0  0  0  0  0
   27.8373  -23.8576   35.8434 O   0  0  0  0  0  0  0  0  0  0  0  0
   30.0221  -23.4380   36.7254 C   0  0  0  0  0  0  0  0  0  0  0  0
   31.1269  -22.5961   36.8587 C   0  0  0  0  0  0  0  0  0  0  0  0
   31.1749  -21.3536   36.2658 C   0  0  0  0  0  0  0  0  0  0  0  0
   33.4476  -18.4210   35.9561 C   0  0  0  0  0  0  0  0  0  0  0  0
   33.6141  -17.1445   35.2309 C   0  0  0  0  0  0  0  0  0  0  0  0
   35.0911  -16.8237   35.4178 C   0  0  0  0  0  0  0  0  0  0  0  0
   35.7292  -18.1039   35.8828 C   0  0  0  0  0  0  0  0  0  0  0  0
   36.8371  -18.1255   36.3684 O   0  0  0  0  0  0  0  0  0  0  0  0
   27.0995  -23.7556   36.5554 H   0  0  0  0  0  0  0  0  0  0  0  0
  2  1  1  0  0  0
  2  3  1  0  0  0
  3  4  1  0  0  0
  4  5  1  0  0  0
  5  6  1  0  0  0
  6  7  1  0  0  0
  7  8  1  0  0  0
  8  9  1  0  0  0
  9 10  2  0  0  0
 10 11  1  0  0  0
 11 12  1  0  0  0
 11 13  2  0  0  0
 13 14  1  0  0  0
 14 15  2  0  0  0
  6 16  1  0  0  0
 16 17  1  0  0  0
 17 18  1  0  0  0
 18 19  1  0  0  0
 19 20  2  0  0  0
 16  2  1  0  0  0
 19  2  1  0  0  0
 15  5  1  0  0  0
 15  9  1  0  0  0
 12 21  1  0  0  0
M  END
> <minimizedAffinity>
-4.99521

> <CNNscore>
0.5785716176

> <CNNaffinity>
4.4974684715

> <CNN_VS>
2.6021075249

> <CNNaffinity_variance>
0.1863343418

$$$$
[H]Oc1c([H])c([H])c2c(c1[H])C([H])([H])C([H])([H])[C@]1([H])[C@]2([H])C([H])([H])C([H])([H])[C@]2(C([H])([H])[H])C(=O)C([H])([H])C([H])([H])[C@]21[H]


 21 24  0  0  0  0  0  0  0  0999 V2000
   32.6826  -20.9828   33.9939 C   0  0  0  0  0  0  0  0  0  0  0  0
   31.8345  -20.6063   35.1726 C   0  0  0  0  0  0  0  0  0  0  0  0
   31.2448  -19.2550   35.0161 C   0  0  0  0  0  0  0  0  0  0  0  0
   32.3096  -18.2106   34.9559 C   0  0  0  0  0  0  0  0  0  0  0  0
   33.2093  -18.2773   36.1517 C   0  0  0  0  0  0  0  0  0  0  0  0
   33.7953  -19.6918   36.2663 C   0  0  0  0  0  0  0  0  0  0  0  0
   34.8370  -19.7144   37.3311 C   0  0  0  0  0  0  0  0  0  0  0  0
   36.0337  -18.9231   36.8094 C   0  0  0  0  0  0  0  0  0  0  0  0
   35.5672  -17.5541   36.4710 C   0  0  0  0  0  0  0  0  0  0  0  0
   36.5182  -16.5515   36.4703 C   0  0  0  0  0  0  0  0  0  0  0  0
   36.1989  -15.2373   36.1700 C   0  0  0  0  0  0  0  0  0  0  0  0
   37.1531  -14.2272   36.1686 O   0  0  0  0  0  0  0  0  0  0  0  0
   34.8876  -14.9360   35.8645 C   0  0  0  0  0  0  0  0  0  0  0  0
   33.9323  -15.9531   35.8669 C   0  0  0  0  0  0  0  0  0  0  0  0
   34.2550  -17.2585   36.1662 C   0  0  0  0  0  0  0  0  0  0  0  0
   32.6448  -20.6009   36.4769 C   0  0  0  0  0  0  0  0  0  0  0  0
   32.9557  -22.0350   36.6497 C   0  0  0  0  0  0  0  0  0  0  0  0
   31.6765  -22.7289   36.2010 C   0  0  0  0  0  0  0  0  0  0  0  0
   30.8927  -21.6889   35.4483 C   0  0  0  0  0  0  0  0  0  0  0  0
   29.7213  -21.8383   35.1855 O   0  0  0  0  0  0  0  0  0  0  0  0
   37.2943  -13.7340   37.0622 H   0  0  0  0  0  0  0  0  0  0  0  0
  2  1  1  0  0  0
  2  3  1  0  0  0
  3  4  1  0  0  0
  4  5  1  0  0  0
  5  6  1  0  0  0
  6  7  1  0  0  0
  7  8  1  0  0  0
  8  9  1  0  0  0
  9 10  2  0  0  0
 10 11  1  0  0  0
 11 12  1  0  0  0
 11 13  2  0  0  0
 13 14  1  0  0  0
 14 15  2  0  0  0
  6 16  1  0  0  0
 16 17  1  0  0  0
 17 18  1  0  0  0
 18 19  1  0  0  0
 19 20  2  0  0  0
 16  2  1  0  0  0
 19  2  1  0  0  0
 15  5  1  0  0  0
 15  9  1  0  0  0
 12 21  1  0  0  0
M  END
> <minimizedAffinity>
-6.15681

> <CNNscore>
0.5782592893

> <CNNaffinity>
4.5957546234

> <CNN_VS>
2.6575376987

> <CNNaffinity_variance>
0.1114962697

$$$$
[H]Oc1c([H])c([H])c2c(c1[H])C([H])([H])C([H])([H])[C@]1([H])[C@]2([H])C([H])([H])C([H])([H])[C@]2(C([H])([H])[H])C(=O)C([H])([H])C([H])([H])[C@]21[H]


 21 24  0  0  0  0  0  0  0  0999 V2000
   37.5458  -17.6788   36.6796 C   0  0  0  0  0  0  0  0  0  0  0  0
   37.9101  -18.8213   35.7785 C   0  0  0  0  0  0  0  0  0  0  0  0
   37.3690  -18.6364   34.4105 C   0  0  0  0  0  0  0  0  0  0  0  0
   35.8766  -18.6148   34.4243 C   0  0  0  0  0  0  0  0  0  0  0  0
   35.3178  -19.8459   35.0695 C   0  0  0  0  0  0  0  0  0  0  0  0
   35.9051  -19.9890   36.4809 C   0  0  0  0  0  0  0  0  0  0  0  0
   35.2112  -21.0945   37.1990 C   0  0  0  0  0  0  0  0  0  0  0  0
   33.7923  -20.6180   37.4992 C   0  0  0  0  0  0  0  0  0  0  0  0
   33.1469  -20.2562   36.2112 C   0  0  0  0  0  0  0  0  0  0  0  0
   31.7660  -20.2897   36.1724 C   0  0  0  0  0  0  0  0  0  0  0  0
   31.0562  -19.9721   35.0260 C   0  0  0  0  0  0  0  0  0  0  0  0
   29.6676  -20.0050   34.9841 O   0  0  0  0  0  0  0  0  0  0  0  0
   31.7633  -19.6134   33.8969 C   0  0  0  0  0  0  0  0  0  0  0  0
   33.1575  -19.5815   33.9428 C   0  0  0  0  0  0  0  0  0  0  0  0
   33.8588  -19.8983   35.0855 C   0  0  0  0  0  0  0  0  0  0  0  0
   37.3665  -20.1569   36.3062 C   0  0  0  0  0  0  0  0  0  0  0  0
   38.1637  -20.3473   37.5355 C   0  0  0  0  0  0  0  0  0  0  0  0
   39.5474  -19.8504   37.1381 C   0  0  0  0  0  0  0  0  0  0  0  0
   39.3481  -19.0633   35.8720 C   0  0  0  0  0  0  0  0  0  0  0  0
   40.2758  -18.7545   35.1594 O   0  0  0  0  0  0  0  0  0  0  0  0
   29.2422  -20.9017   34.7070 H   0  0  0  0  0  0  0  0  0  0  0  0
  2  1  1  0  0  0
  2  3  1  0  0  0
  3  4  1  0  0  0
  4  5  1  0  0  0
  5  6  1  0  0  0
  6  7  1  0  0  0
  7  8  1  0  0  0
  8  9  1  0  0  0
  9 10  2  0  0  0
 10 11  1  0  0  0
 11 12  1  0  0  0
 11 13  2  0  0  0
 13 14  1  0  0  0
 14 15  2  0  0  0
  6 16  1  0  0  0
 16 17  1  0  0  0
 17 18  1  0  0  0
 18 19  1  0  0  0
 19 20  2  0  0  0
 16  2  1  0  0  0
 19  2  1  0  0  0
 15  5  1  0  0  0
 15  9  1  0  0  0
 12 21  1  0  0  0
M  END
> <minimizedAffinity>
-5.40133

> <CNNscore>
0.5475959778

> <CNNaffinity>
4.5302915573

> <CNN_VS>
2.4807693958

> <CNNaffinity_variance>
0.0661586374

$$$$
[H]Oc1c([H])c([H])c2c(c1[H])C([H])([H])C([H])([H])[C@]1([H])[C@]2([H])C([H])([H])C([H])([H])[C@]2(C([H])([H])[H])C(=O)C([H])([H])C([H])([H])[C@]21[H]


 21 24  0  0  0  0  0  0  0  0999 V2000
   35.1483  -17.5966   36.6521 C   0  0  0  0  0  0  0  0  0  0  0  0
   35.3617  -18.3391   35.3663 C   0  0  0  0  0  0  0  0  0  0  0  0
   34.2789  -18.0698   34.3899 C   0  0  0  0  0  0  0  0  0  0  0  0
   32.9636  -18.5542   34.9031 C   0  0  0  0  0  0  0  0  0  0  0  0
   33.0198  -20.0061   35.2675 C   0  0  0  0  0  0  0  0  0  0  0  0
   34.1516  -20.2304   36.2805 C   0  0  0  0  0  0  0  0  0  0  0  0
   34.0900  -21.6274   36.7945 C   0  0  0  0  0  0  0  0  0  0  0  0
   32.8527  -21.7279   37.6830 C   0  0  0  0  0  0  0  0  0  0  0  0
   31.6701  -21.3474   36.8688 C   0  0  0  0  0  0  0  0  0  0  0  0
   30.4441  -21.8341   37.2807 C   0  0  0  0  0  0  0  0  0  0  0  0
   29.2732  -21.5451   36.5993 C   0  0  0  0  0  0  0  0  0  0  0  0
   28.0391  -22.0332   37.0112 O   0  0  0  0  0  0  0  0  0  0  0  0
   29.3493  -20.7457   35.4774 C   0  0  0  0  0  0  0  0  0  0  0  0
   30.5903  -20.2574   35.0668 C   0  0  0  0  0  0  0  0  0  0  0  0
   31.7520  -20.5478   35.7480 C   0  0  0  0  0  0  0  0  0  0  0  0
   35.4070  -19.8579   35.5880 C   0  0  0  0  0  0  0  0  0  0  0  0
   36.6599  -20.0177   36.3547 C   0  0  0  0  0  0  0  0  0  0  0  0
   37.6020  -19.0144   35.7026 C   0  0  0  0  0  0  0  0  0  0  0  0
   36.7239  -18.0976   34.8960 C   0  0  0  0  0  0  0  0  0  0  0  0
   37.1774  -17.3556   34.0549 O   0  0  0  0  0  0  0  0  0  0  0  0
   27.7565  -22.9434   36.6195 H   0  0  0  0  0  0  0  0  0  0  0  0
  2  1  1  0  0  0
  2  3  1  0  0  0
  3  4  1  0  0  0
  4  5  1  0  0  0
  5  6  1  0  0  0
  6  7  1  0  0  0
  7  8  1  0  0  0
  8  9  1  0  0  0
  9 10  2  0  0  0
 10 11  1  0  0  0
 11 12  1  0  0  0
 11 13  2  0  0  0
 13 14  1  0  0  0
 14 15  2  0  0  0
  6 16  1  0  0  0
 16 17  1  0  0  0
 17 18  1  0  0  0
 18 19  1  0  0  0
 19 20  2  0  0  0
 16  2  1  0  0  0
 19  2  1  0  0  0
 15  5  1  0  0  0
 15  9  1  0  0  0
 12 21  1  0  0  0
M  END
> <minimizedAffinity>
-5.11942

> <CNNscore>
0.5348349214

> <CNNaffinity>
4.4099974632

> <CNN_VS>
2.3586206436

> <CNNaffinity_variance>
0.1202215180

$$$$
[H]Oc1c([H])c([H])c2c(c1[H])C([H])([H])C([H])([H])[C@]1([H])[C@]2([H])C([H])([H])C([H])([H])[C@]2(C([H])([H])[H])C(=O)C([H])([H])C([H])([H])[C@]21[H]


 21 24  0  0  0  0  0  0  0  0999 V2000
   32.0887  -20.6894   37.0300 C   0  0  0  0  0  0  0  0  0  0  0  0
   33.2611  -21.1885   36.2383 C   0  0  0  0  0  0  0  0  0  0  0  0
   34.5188  -21.1272   37.0211 C   0  0  0  0  0  0  0  0  0  0  0  0
   34.8612  -19.7177   37.3732 C   0  0  0  0  0  0  0  0  0  0  0  0
   34.9361  -18.8518   36.1531 C   0  0  0  0  0  0  0  0  0  0  0  0
   33.6117  -18.9477   35.3821 C   0  0  0  0  0  0  0  0  0  0  0  0
   33.6037  -17.9456   34.2798 C   0  0  0  0  0  0  0  0  0  0  0  0
   33.4897  -16.5663   34.9237 C   0  0  0  0  0  0  0  0  0  0  0  0
   34.6299  -16.4012   35.8614 C   0  0  0  0  0  0  0  0  0  0  0  0
   35.0140  -15.1071   36.1574 C   0  0  0  0  0  0  0  0  0  0  0  0
   36.0637  -14.8321   37.0185 C   0  0  0  0  0  0  0  0  0  0  0  0
   36.4521  -13.5319   37.3180 O   0  0  0  0  0  0  0  0  0  0  0  0
   36.7362  -15.8925   37.5901 C   0  0  0  0  0  0  0  0  0  0  0  0
   36.3433  -17.1966   37.2870 C   0  0  0  0  0  0  0  0  0  0  0  0
   35.2987  -17.4649   36.4299 C   0  0  0  0  0  0  0  0  0  0  0  0
   33.4783  -20.3621   34.9625 C   0  0  0  0  0  0  0  0  0  0  0  0
   32.2823  -20.7079   34.1669 C   0  0  0  0  0  0  0  0  0  0  0  0
   32.0905  -22.1925   34.4467 C   0  0  0  0  0  0  0  0  0  0  0  0
   32.9282  -22.4886   35.6604 C   0  0  0  0  0  0  0  0  0  0  0  0
   33.2017  -23.6210   35.9868 O   0  0  0  0  0  0  0  0  0  0  0  0
   37.1674  -13.1179   36.7025 H   0  0  0  0  0  0  0  0  0  0  0  0
  2  1  1  0  0  0
  2  3  1  0  0  0
  3  4  1  0  0  0
  4  5  1  0  0  0
  5  6  1  0  0  0
  6  7  1  0  0  0
  7  8  1  0  0  0
  8  9  1  0  0  0
  9 10  2  0  0  0
 10 11  1  0  0  0
 11 12  1  0  0  0
 11 13  2  0  0  0
 13 14  1  0  0  0
 14 15  2  0  0  0
  6 16  1  0  0  0
 16 17  1  0  0  0
 17 18  1  0  0  0
 18 19  1  0  0  0
 19 20  2  0  0  0
 16  2  1  0  0  0
 19  2  1  0  0  0
 15  5  1  0  0  0
 15  9  1  0  0  0
 12 21  1  0  0  0
M  END
> <minimizedAffinity>
-6.18603

> <CNNscore>
0.5342816710

> <CNNaffinity>
4.4774222374

> <CNN_VS>
2.3922045231

> <CNNaffinity_variance>
0.1998242438

$$$$
[H]Oc1c([H])c([H])c2c(c1[H])C([H])([H])C([H])([H])[C@]1([H])[C@]2([H])C([H])([H])C([H])([H])[C@]2(C([H])([H])[H])C(=O)C([H])([H])C([H])([H])[C@]21[H]


 21 24  0  0  0  0  0  0  0  0999 V2000
   36.7724  -23.4790   37.1197 C   0  0  0  0  0  0  0  0  0  0  0  0
   35.7948  -23.3630   38.2516 C   0  0  0  0  0  0  0  0  0  0  0  0
   34.3923  -23.4318   37.7756 C   0  0  0  0  0  0  0  0  0  0  0  0
   34.0772  -22.2856   36.8729 C   0  0  0  0  0  0  0  0  0  0  0  0
   34.3641  -20.9729   37.5352 C   0  0  0  0  0  0  0  0  0  0  0  0
   35.8256  -20.9515   38.0051 C   0  0  0  0  0  0  0  0  0  0  0  0
   36.1738  -19.5854   38.4867 C   0  0  0  0  0  0  0  0  0  0  0  0
   36.2271  -18.6747   37.2627 C   0  0  0  0  0  0  0  0  0  0  0  0
   34.9082  -18.7410   36.5827 C   0  0  0  0  0  0  0  0  0  0  0  0
   34.5581  -17.6644   35.7902 C   0  0  0  0  0  0  0  0  0  0  0  0
   33.3532  -17.6162   35.1084 C   0  0  0  0  0  0  0  0  0  0  0  0
   32.9986  -16.5349   34.3108 O   0  0  0  0  0  0  0  0  0  0  0  0
   32.4871  -18.6827   35.2340 C   0  0  0  0  0  0  0  0  0  0  0  0
   32.8467  -19.7667   36.0357 C   0  0  0  0  0  0  0  0  0  0  0  0
   34.0461  -19.8098   36.7119 C   0  0  0  0  0  0  0  0  0  0  0  0
   35.9546  -22.0354   39.0065 C   0  0  0  0  0  0  0  0  0  0  0  0
   37.2800  -22.2005   39.6383 C   0  0  0  0  0  0  0  0  0  0  0  0
   37.2902  -23.6646   40.0574 C   0  0  0  0  0  0  0  0  0  0  0  0
   36.1635  -24.3119   39.2999 C   0  0  0  0  0  0  0  0  0  0  0  0
   35.7378  -25.4042   39.5985 O   0  0  0  0  0  0  0  0  0  0  0  0
   32.4862  -15.7733   34.7791 H   0  0  0  0  0  0  0  0  0  0  0  0
  2  1  1  0  0  0
  2  3  1  0  0  0
  3  4  1  0  0  0
  4  5  1  0  0  0
  5  6  1  0  0  0
  6  7  1  0  0  0
  7  8  1  0  0  0
  8  9  1  0  0  0
  9 10  2  0  0  0
 10 11  1  0  0  0
 11 12  1  0  0  0
 11 13  2  0  0  0
 13 14  1  0  0  0
 14 15  2  0  0  0
  6 16  1  0  0  0
 16 17  1  0  0  0
 17 18  1  0  0  0
 18 19  1  0  0  0
 19 20  2  0  0  0
 16  2  1  0  0  0
 19  2  1  0  0  0
 15  5  1  0  0  0
 15  9  1  0  0  0
 12 21  1  0  0  0
M  END
> <minimizedAffinity>
-3.99851

> <CNNscore>
0.5274125934

> <CNNaffinity>
4.0466318130

> <CNN_VS>
2.1342446804

> <CNNaffinity_variance>
0.0367216542

$$$$
[H]Oc1c([H])c([H])c2c(c1[H])C([H])([H])C([H])([H])[C@]1([H])[C@]2([H])C([H])([H])C([H])([H])[C@]2(C([H])([H])[H])C(=O)C([H])([H])C([H])([H])[C@]21[H]


 21 24  0  0  0  0  0  0  0  0999 V2000
   35.9470  -20.9760   39.9888 C   0  0  0  0  0  0  0  0  0  0  0  0
   36.7498  -21.1808   38.7383 C   0  0  0  0  0  0  0  0  0  0  0  0
   36.8804  -19.9271   37.9576 C   0  0  0  0  0  0  0  0  0  0  0  0
   35.5470  -19.4484   37.4877 C   0  0  0  0  0  0  0  0  0  0  0  0
   34.8313  -20.5059   36.7044 C   0  0  0  0  0  0  0  0  0  0  0  0
   34.7193  -21.7784   37.5563 C   0  0  0  0  0  0  0  0  0  0  0  0
   33.8429  -22.7649   36.8648 C   0  0  0  0  0  0  0  0  0  0  0  0
   32.4169  -22.2233   36.9258 C   0  0  0  0  0  0  0  0  0  0  0  0
   32.4078  -20.8806   36.2905 C   0  0  0  0  0  0  0  0  0  0  0  0
   31.2007  -20.4352   35.7864 C   0  0  0  0  0  0  0  0  0  0  0  0
   31.0726  -19.1999   35.1727 C   0  0  0  0  0  0  0  0  0  0  0  0
   29.8600  -18.7496   34.6648 O   0  0  0  0  0  0  0  0  0  0  0  0
   32.1930  -18.4015   35.0692 C   0  0  0  0  0  0  0  0  0  0  0  0
   33.4088  -18.8571   35.5803 C   0  0  0  0  0  0  0  0  0  0  0  0
   33.5310  -20.0864   36.1897 C   0  0  0  0  0  0  0  0  0  0  0  0
   36.1073  -22.2266   37.8156 C   0  0  0  0  0  0  0  0  0  0  0  0
   36.2676  -23.4674   38.6014 C   0  0  0  0  0  0  0  0  0  0  0  0
   37.6477  -23.3124   39.2264 C   0  0  0  0  0  0  0  0  0  0  0  0
   37.9994  -21.8574   39.0786 C   0  0  0  0  0  0  0  0  0  0  0  0
   39.1291  -21.4543   39.2361 O   0  0  0  0  0  0  0  0  0  0  0  0
   29.6624  -18.9875   33.6819 H   0  0  0  0  0  0  0  0  0  0  0  0
  2  1  1  0  0  0
  2  3  1  0  0  0
  3  4  1  0  0  0
  4  5  1  0  0  0
  5  6  1  0  0  0
  6  7  1  0  0  0
  7  8  1  0  0  0
  8  9  1  0  0  0
  9 10  2  0  0  0
 10 11  1  0  0  0
 11 12  1  0  0  0
 11 13  2  0  0  0
 13 14  1  0  0  0
 14 15  2  0  0  0
  6 16  1  0  0  0
 16 17  1  0  0  0
 17 18  1  0  0  0
 18 19  1  0  0  0
 19 20  2  0  0  0
 16  2  1  0  0  0
 19  2  1  0  0  0
 15  5  1  0  0  0
 15  9  1  0  0  0
 12 21  1  0  0  0
M  END
> <minimizedAffinity>
-4.37511

> <CNNscore>
0.5117862225

> <CNNaffinity>
4.0528845787

> <CNN_VS>
2.0742104053

> <CNNaffinity_variance>
0.0748348087

$$$$
[H]Oc1c([H])c([H])c2c(c1[H])C([H])([H])C([H])([H])[C@]1([H])[C@]2([H])C([H])([H])C([H])([H])[C@]2(C([H])([H])[H])C(=O)C([H])([H])C([H])([H])[C@]21[H]


 21 24  0  0  0  0  0  0  0  0999 V2000
   34.1143  -19.8778   33.8169 C   0  0  0  0  0  0  0  0  0  0  0  0
   33.0728  -19.6093   34.8626 C   0  0  0  0  0  0  0  0  0  0  0  0
   32.4322  -18.2857   34.6730 C   0  0  0  0  0  0  0  0  0  0  0  0
   33.4270  -17.1834   34.8255 C   0  0  0  0  0  0  0  0  0  0  0  0
   34.1337  -17.2629   36.1440 C   0  0  0  0  0  0  0  0  0  0  0  0
   34.7810  -18.6476   36.2889 C   0  0  0  0  0  0  0  0  0  0  0  0
   35.6452  -18.6687   37.5022 C   0  0  0  0  0  0  0  0  0  0  0  0
   36.8570  -17.7877   37.2093 C   0  0  0  0  0  0  0  0  0  0  0  0
   36.3649  -16.4304   36.8604 C   0  0  0  0  0  0  0  0  0  0  0  0
   37.2410  -15.3789   37.0518 C   0  0  0  0  0  0  0  0  0  0  0  0
   36.8914  -14.0703   36.7614 C   0  0  0  0  0  0  0  0  0  0  0  0
   37.7703  -13.0111   36.9530 O   0  0  0  0  0  0  0  0  0  0  0  0
   35.6271  -13.8252   36.2667 C   0  0  0  0  0  0  0  0  0  0  0  0
   34.7474  -14.8913   36.0756 C   0  0  0  0  0  0  0  0  0  0  0  0
   35.0997  -16.1910   36.3660 C   0  0  0  0  0  0  0  0  0  0  0  0
   33.6701  -19.6274   36.2771 C   0  0  0  0  0  0  0  0  0  0  0  0
   34.0383  -21.0495   36.4354 C   0  0  0  0  0  0  0  0  0  0  0  0
   32.8890  -21.7877   35.7620 C   0  0  0  0  0  0  0  0  0  0  0  0
   32.1683  -20.7542   34.9405 C   0  0  0  0  0  0  0  0  0  0  0  0
   31.0629  -20.9532   34.4907 O   0  0  0  0  0  0  0  0  0  0  0  0
   37.7412  -12.5579   37.8779 H   0  0  0  0  0  0  0  0  0  0  0  0
  2  1  1  0  0  0
  2  3  1  0  0  0
  3  4  1  0  0  0
  4  5  1  0  0  0
  5  6  1  0  0  0
  6  7  1  0  0  0
  7  8  1  0  0  0
  8  9  1  0  0  0
  9 10  2  0  0  0
 10 11  1  0  0  0
 11 12  1  0  0  0
 11 13  2  0  0  0
 13 14  1  0  0  0
 14 15  2  0  0  0
  6 16  1  0  0  0
 16 17  1  0  0  0
 17 18  1  0  0  0
 18 19  1  0  0  0
 19 20  2  0  0  0
 16  2  1  0  0  0
 19  2  1  0  0  0
 15  5  1  0  0  0
 15  9  1  0  0  0
 12 21  1  0  0  0
M  END
> <minimizedAffinity>
-6.97157

> <CNNscore>
0.5083056092

> <CNNaffinity>
4.6310081482

> <CNN_VS>
2.3539674282

> <CNNaffinity_variance>
0.2465094328

$$$$
[H]Oc1c([H])c([H])c2c(c1[H])C([H])([H])C([H])([H])[C@]1([H])[C@]2([H])C([H])([H])C([H])([H])[C@]2(C([H])([H])[H])C(=O)C([H])([H])C([H])([H])[C@]21[H]


 21 24  0  0  0  0  0  0  0  0999 V2000
   32.1337  -22.2671   34.5912 C   0  0  0  0  0  0  0  0  0  0  0  0
   31.6414  -20.9854   35.1955 C   0  0  0  0  0  0  0  0  0  0  0  0
   31.8321  -19.8364   34.2780 C   0  0  0  0  0  0  0  0  0  0  0  0
   33.2812  -19.6045   34.0057 C   0  0  0  0  0  0  0  0  0  0  0  0
   34.0540  -19.4217   35.2759 C   0  0  0  0  0  0  0  0  0  0  0  0
   33.8260  -20.6365   36.1867 C   0  0  0  0  0  0  0  0  0  0  0  0
   34.7388  -20.5564   37.3614 C   0  0  0  0  0  0  0  0  0  0  0  0
   36.1550  -20.8112   36.8515 C   0  0  0  0  0  0  0  0  0  0  0  0
   36.4544  -19.8023   35.8032 C   0  0  0  0  0  0  0  0  0  0  0  0
   37.7866  -19.5170   35.5720 C   0  0  0  0  0  0  0  0  0  0  0  0
   38.1846  -18.5936   34.6191 C   0  0  0  0  0  0  0  0  0  0  0  0
   39.5235  -18.3047   34.3845 O   0  0  0  0  0  0  0  0  0  0  0  0
   37.2100  -17.9476   33.8867 C   0  0  0  0  0  0  0  0  0  0  0  0
   35.8667  -18.2404   34.1251 C   0  0  0  0  0  0  0  0  0  0  0  0
   35.4760  -19.1595   35.0740 C   0  0  0  0  0  0  0  0  0  0  0  0
   32.3784  -20.6528   36.5008 C   0  0  0  0  0  0  0  0  0  0  0  0
   31.9069  -21.7259   37.4003 C   0  0  0  0  0  0  0  0  0  0  0  0
   30.4397  -21.8820   37.0232 C   0  0  0  0  0  0  0  0  0  0  0  0
   30.2843  -21.1855   35.6991 C   0  0  0  0  0  0  0  0  0  0  0  0
   29.1972  -20.9020   35.2504 O   0  0  0  0  0  0  0  0  0  0  0  0
   39.9281  -17.5396   34.9437 H   0  0  0  0  0  0  0  0  0  0  0  0
  2  1  1  0  0  0
  2  3  1  0  0  0
  3  4  1  0  0  0
  4  5  1  0  0  0
  5  6  1  0  0  0
  6  7  1  0  0  0
  7  8  1  0  0  0
  8  9  1  0  0  0
  9 10  2  0  0  0
 10 11  1  0  0  0
 11 12  1  0  0  0
 11 13  2  0  0  0
 13 14  1  0  0  0
 14 15  2  0  0  0
  6 16  1  0  0  0
 16 17  1  0  0  0
 17 18  1  0  0  0
 18 19  1  0  0  0
 19 20  2  0  0  0
 16  2  1  0  0  0
 19  2  1  0  0  0
 15  5  1  0  0  0
 15  9  1  0  0  0
 12 21  1  0  0  0
M  END
> <minimizedAffinity>
-5.96017

> <CNNscore>
0.4548850060

> <CNNaffinity>
4.3632307053

> <CNN_VS>
1.9847682714

> <CNNaffinity_variance>
0.1369035691

$$$$
[H]C#C[C@]1(O[H])C([H])([H])C([H])([H])[C@]2([H])[C@]1(C([H])([H])[H])C([H])([H])[C@]1([H])c3c([H])c([H])c(O[H])c([H])c3C([H])([H])C([H])([H])[C@]12[H]


 23 26  0  0  0  0  0  0  0  0999 V2000
   33.6253  -20.1058   33.4844 C   0  0  0  0  0  0  0  0  0  0  0  0
   33.6266  -19.9991   34.9769 C   0  0  0  0  0  0  0  0  0  0  0  0
   33.2024  -21.2266   35.6873 C   0  0  0  0  0  0  0  0  0  0  0  0
   31.7755  -21.0076   36.0227 C   0  0  0  0  0  0  0  0  0  0  0  0
   31.3686  -19.7655   35.1940 C   0  0  0  0  0  0  0  0  0  0  0  0
   30.0738  -19.2922   35.7191 C   0  0  0  0  0  0  0  0  0  0  0  0
   29.1389  -20.3249   36.2313 C   0  0  0  0  0  0  0  0  0  0  0  0
   29.4781  -21.7133   35.8401 C   0  0  0  0  0  0  0  0  0  0  0  0
   28.4839  -22.6376   35.5893 C   0  0  0  0  0  0  0  0  0  0  0  0
   28.8151  -23.9321   35.2296 C   0  0  0  0  0  0  0  0  0  0  0  0
   27.8171  -24.8898   34.9694 O   0  0  0  0  0  0  0  0  0  0  0  0
   30.1505  -24.2592   35.1328 C   0  0  0  0  0  0  0  0  0  0  0  0
   31.1713  -23.3334   35.3839 C   0  0  0  0  0  0  0  0  0  0  0  0
   30.8152  -22.0499   35.7404 C   0  0  0  0  0  0  0  0  0  0  0  0
   32.5603  -18.9933   35.4698 C   0  0  0  0  0  0  0  0  0  0  0  0
   32.9691  -17.8090   34.7706 C   0  0  0  0  0  0  0  0  0  0  0  0
   34.4943  -17.8300   34.9927 C   0  0  0  0  0  0  0  0  0  0  0  0
   34.8221  -19.2694   35.4300 C   0  0  0  0  0  0  0  0  0  0  0  0
   35.9407  -19.7510   34.7808 O   0  0  0  0  0  0  0  0  0  0  0  0
   27.4504  -25.4789   35.7170 H   0  0  0  0  0  0  0  0  0  0  0  0
   36.7306  -19.3623   35.2029 H   0  0  0  0  0  0  0  0  0  0  0  0
   34.9749  -19.2720   36.8905 C   0  0  0  0  0  0  0  0  0  0  0  0
   35.0884  -19.2757   38.0906 C   0  0  0  0  0  0  0  0  0  0  0  0
  2  1  1  0  0  0
  2  3  1  0  0  0
  3  4  1  0  0  0
  4  5  1  0  0  0
  5  6  1  0  0  0
  6  7  1  0  0  0
  7  8  1  0  0  0
  8  9  2  0  0  0
  9 10  1  0  0  0
 10 11  1  0  0  0
 10 12  2  0  0  0
 12 13  1  0  0  0
 13 14  2  0  0  0
  5 15  1  0  0  0
 15 16  1  0  0  0
 16 17  1  0  0  0
 17 18  1  0  0  0
 18 19  1  0  0  0
 18 22  1  0  0  0
 22 23  3  0  0  0
 15  2  1  0  0  0
 18  2  1  0  0  0
 14  4  1  0  0  0
 14  8  1  0  0  0
 11 20  1  0  0  0
 19 21  1  0  0  0
M  END
> <minimizedAffinity>
-5.31794

> <CNNscore>
0.7138866186

> <CNNaffinity>
4.6394925117

> <CNN_VS>
3.3120715618

> <CNNaffinity_variance>
0.1817866266

$$$$
[H]C#C[C@]1(O[H])C([H])([H])C([H])([H])[C@]2([H])[C@]1(C([H])([H])[H])C([H])([H])[C@]1([H])c3c([H])c([H])c(O[H])c([H])c3C([H])([H])C([H])([H])[C@]12[H]


 23 26  0  0  0  0  0  0  0  0999 V2000
   30.6026  -22.5028   37.7213 C   0  0  0  0  0  0  0  0  0  0  0  0
   30.9978  -22.7629   36.3018 C   0  0  0  0  0  0  0  0  0  0  0  0
   32.4381  -22.5776   36.0145 C   0  0  0  0  0  0  0  0  0  0  0  0
   32.5457  -21.2208   35.4281 C   0  0  0  0  0  0  0  0  0  0  0  0
   31.1694  -20.5690   35.7038 C   0  0  0  0  0  0  0  0  0  0  0  0
   31.0840  -19.3543   34.8711 C   0  0  0  0  0  0  0  0  0  0  0  0
   32.3487  -18.6166   34.6278 C   0  0  0  0  0  0  0  0  0  0  0  0
   33.4665  -18.9954   35.5238 C   0  0  0  0  0  0  0  0  0  0  0  0
   34.3854  -18.0535   35.9411 C   0  0  0  0  0  0  0  0  0  0  0  0
   35.4273  -18.4224   36.7738 C   0  0  0  0  0  0  0  0  0  0  0  0
   36.3748  -17.4779   37.2110 O   0  0  0  0  0  0  0  0  0  0  0  0
   35.5125  -19.7414   37.1643 C   0  0  0  0  0  0  0  0  0  0  0  0
   34.5886  -20.7093   36.7500 C   0  0  0  0  0  0  0  0  0  0  0  0
   33.5595  -20.3164   35.9206 C   0  0  0  0  0  0  0  0  0  0  0  0
   30.3729  -21.7217   35.3442 C   0  0  0  0  0  0  0  0  0  0  0  0
   28.9788  -21.8975   35.6341 C   0  0  0  0  0  0  0  0  0  0  0  0
   28.8575  -23.4341   35.6486 C   0  0  0  0  0  0  0  0  0  0  0  0
   30.2992  -23.9547   35.7933 C   0  0  0  0  0  0  0  0  0  0  0  0
   30.3760  -24.9751   36.7194 O   0  0  0  0  0  0  0  0  0  0  0  0
   37.2238  -17.3020   36.6736 H   0  0  0  0  0  0  0  0  0  0  0  0
   30.0422  -25.7925   36.3026 H   0  0  0  0  0  0  0  0  0  0  0  0
   30.7644  -24.3668   34.4629 C   0  0  0  0  0  0  0  0  0  0  0  0
   31.1375  -24.7134   33.3702 C   0  0  0  0  0  0  0  0  0  0  0  0
  2  1  1  0  0  0
  2  3  1  0  0  0
  3  4  1  0  0  0
  4  5  1  0  0  0
  5  6  1  0  0  0
  6  7  1  0  0  0
  7  8  1  0  0  0
  8  9  2  0  0  0
  9 10  1  0  0  0
 10 11  1  0  0  0
 10 12  2  0  0  0
 12 13  1  0  0  0
 13 14  2  0  0  0
  5 15  1  0  0  0
 15 16  1  0  0  0
 16 17  1  0  0  0
 17 18  1  0  0  0
 18 19  1  0  0  0
 18 22  1  0  0  0
 22 23  3  0  0  0
 15  2  1  0  0  0
 18  2  1  0  0  0
 14  4  1  0  0  0
 14  8  1  0  0  0
 11 20  1  0  0  0
 19 21  1  0  0  0
M  END
> <minimizedAffinity>
-5.27809

> <CNNscore>
0.6477460265

> <CNNaffinity>
4.2398371696

> <CNN_VS>
2.7463376522

> <CNNaffinity_variance>
0.3011905253

$$$$
[H]C#C[C@]1(O[H])C([H])([H])C([H])([H])[C@]2([H])[C@]1(C([H])([H])[H])C([H])([H])[C@]1([H])c3c([H])c([H])c(O[H])c([H])c3C([H])([H])C([H])([H])[C@]12[H]


 23 26  0  0  0  0  0  0  0  0999 V2000
   34.8075  -16.9395   36.2797 C   0  0  0  0  0  0  0  0  0  0  0  0
   35.4141  -18.1682   35.6786 C   0  0  0  0  0  0  0  0  0  0  0  0
   34.5121  -18.9347   34.7897 C   0  0  0  0  0  0  0  0  0  0  0  0
   33.9803  -20.0334   35.6301 C   0  0  0  0  0  0  0  0  0  0  0  0
   34.3780  -19.6443   37.0742 C   0  0  0  0  0  0  0  0  0  0  0  0
   34.1772  -20.8353   37.9212 C   0  0  0  0  0  0  0  0  0  0  0  0
   33.0590  -21.7396   37.5541 C   0  0  0  0  0  0  0  0  0  0  0  0
   32.0834  -21.1596   36.6012 C   0  0  0  0  0  0  0  0  0  0  0  0
   30.7425  -21.4768   36.6851 C   0  0  0  0  0  0  0  0  0  0  0  0
   29.8433  -20.9318   35.7855 C   0  0  0  0  0  0  0  0  0  0  0  0
   28.4721  -21.2418   35.8535 O   0  0  0  0  0  0  0  0  0  0  0  0
   30.3270  -20.0758   34.8196 C   0  0  0  0  0  0  0  0  0  0  0  0
   31.6843  -19.7437   34.7208 C   0  0  0  0  0  0  0  0  0  0  0  0
   32.5600  -20.2999   35.6292 C   0  0  0  0  0  0  0  0  0  0  0  0
   35.7274  -19.2278   36.7606 C   0  0  0  0  0  0  0  0  0  0  0  0
   36.5925  -18.4773   37.6247 C   0  0  0  0  0  0  0  0  0  0  0  0
   37.5240  -17.7892   36.6075 C   0  0  0  0  0  0  0  0  0  0  0  0
   36.7967  -17.8930   35.2544 C   0  0  0  0  0  0  0  0  0  0  0  0
   36.8472  -16.7001   34.5623 O   0  0  0  0  0  0  0  0  0  0  0  0
   28.0899  -22.0363   35.3404 H   0  0  0  0  0  0  0  0  0  0  0  0
   37.7346  -16.6145   34.1643 H   0  0  0  0  0  0  0  0  0  0  0  0
   37.3973  -19.0038   34.5050 C   0  0  0  0  0  0  0  0  0  0  0  0
   37.8996  -19.9159   33.8974 C   0  0  0  0  0  0  0  0  0  0  0  0
  2  1  1  0  0  0
  2  3  1  0  0  0
  3  4  1  0  0  0
  4  5  1  0  0  0
  5  6  1  0  0  0
  6  7  1  0  0  0
  7  8  1  0  0  0
  8  9  2  0  0  0
  9 10  1  0  0  0
 10 11  1  0  0  0
 10 12  2  0  0  0
 12 13  1  0  0  0
 13 14  2  0  0  0
  5 15  1  0  0  0
 15 16  1  0  0  0
 16 17  1  0  0  0
 17 18  1  0  0  0
 18 19  1  0  0  0
 18 22  1  0  0  0
 22 23  3  0  0  0
 15  2  1  0  0  0
 18  2  1  0  0  0
 14  4  1  0  0  0
 14  8  1  0  0  0
 11 20  1  0  0  0
 19 21  1  0  0  0
M  END
> <minimizedAffinity>
-5.48425

> <CNNscore>
0.6185415983

> <CNNaffinity>
4.5262169838

> <CNN_VS>
2.7996535301

> <CNNaffinity_variance>
0.1854546070

$$$$
[H]C#C[C@]1(O[H])C([H])([H])C([H])([H])[C@]2([H])[C@]1(C([H])([H])[H])C([H])([H])[C@]1([H])c3c([H])c([H])c(O[H])c([H])c3C([H])([H])C([H])([H])[C@]12[H]


 23 26  0  0  0  0  0  0  0  0999 V2000
   31.6440  -19.5951   36.2781 C   0  0  0  0  0  0  0  0  0  0  0  0
   32.7792  -20.5697   36.2914 C   0  0  0  0  0  0  0  0  0  0  0  0
   33.9572  -20.1399   37.0782 C   0  0  0  0  0  0  0  0  0  0  0  0
   34.9060  -19.5841   36.0846 C   0  0  0  0  0  0  0  0  0  0  0  0
   34.0712  -19.4405   34.7894 C   0  0  0  0  0  0  0  0  0  0  0  0
   35.0166  -19.2086   33.6810 C   0  0  0  0  0  0  0  0  0  0  0  0
   36.2470  -18.4413   33.9973 C   0  0  0  0  0  0  0  0  0  0  0  0
   36.2084  -17.7180   35.2901 C   0  0  0  0  0  0  0  0  0  0  0  0
   36.8369  -16.4974   35.4338 C   0  0  0  0  0  0  0  0  0  0  0  0
   36.7969  -15.8354   36.6483 C   0  0  0  0  0  0  0  0  0  0  0  0
   37.4309  -14.5901   36.8161 O   0  0  0  0  0  0  0  0  0  0  0  0
   36.1186  -16.4290   37.6910 C   0  0  0  0  0  0  0  0  0  0  0  0
   35.4757  -17.6668   37.5617 C   0  0  0  0  0  0  0  0  0  0  0  0
   35.5300  -18.3062   36.3413 C   0  0  0  0  0  0  0  0  0  0  0  0
   33.4065  -20.7218   34.8861 C   0  0  0  0  0  0  0  0  0  0  0  0
   32.2595  -21.1276   34.1258 C   0  0  0  0  0  0  0  0  0  0  0  0
   31.6319  -22.1857   35.0544 C   0  0  0  0  0  0  0  0  0  0  0  0
   32.2654  -21.9416   36.4363 C   0  0  0  0  0  0  0  0  0  0  0  0
   31.3187  -21.9852   37.4395 O   0  0  0  0  0  0  0  0  0  0  0  0
   38.4016  -14.5352   37.1246 H   0  0  0  0  0  0  0  0  0  0  0  0
   31.1055  -22.9210   37.6187 H   0  0  0  0  0  0  0  0  0  0  0  0
   33.3304  -22.9348   36.6247 C   0  0  0  0  0  0  0  0  0  0  0  0
   34.1999  -23.7533   36.7901 C   0  0  0  0  0  0  0  0  0  0  0  0
  2  1  1  0  0  0
  2  3  1  0  0  0
  3  4  1  0  0  0
  4  5  1  0  0  0
  5  6  1  0  0  0
  6  7  1  0  0  0
  7  8  1  0  0  0
  8  9  2  0  0  0
  9 10  1  0  0  0
 10 11  1  0  0  0
 10 12  2  0  0  0
 12 13  1  0  0  0
 13 14  2  0  0  0
  5 15  1  0  0  0
 15 16  1  0  0  0
 16 17  1  0  0  0
 17 18  1  0  0  0
 18 19  1  0  0  0
 18 22  1  0  0  0
 22 23  3  0  0  0
 15  2  1  0  0  0
 18  2  1  0  0  0
 14  4  1  0  0  0
 14  8  1  0  0  0
 11 20  1  0  0  0
 19 21  1  0  0  0
M  END
> <minimizedAffinity>
-4.58973

> <CNNscore>
0.5826715231

> <CNNaffinity>
4.5944275856

> <CNN_VS>
2.6770420074

> <CNNaffinity_variance>
0.0361847952

$$$$
[H]C#C[C@]1(O[H])C([H])([H])C([H])([H])[C@]2([H])[C@]1(C([H])([H])[H])C([H])([H])[C@]1([H])c3c([H])c([H])c(O[H])c([H])c3C([H])([H])C([H])([H])[C@]12[H]


 23 26  0  0  0  0  0  0  0  0999 V2000
   35.0475  -20.2225   40.8012 C   0  0  0  0  0  0  0  0  0  0  0  0
   35.6060  -21.2093   39.8250 C   0  0  0  0  0  0  0  0  0  0  0  0
   36.0660  -20.6243   38.5453 C   0  0  0  0  0  0  0  0  0  0  0  0
   34.9506  -20.8442   37.5946 C   0  0  0  0  0  0  0  0  0  0  0  0
   33.7619  -21.2786   38.4853 C   0  0  0  0  0  0  0  0  0  0  0  0
   32.7230  -21.8283   37.5938 C   0  0  0  0  0  0  0  0  0  0  0  0
   32.6063  -21.2214   36.2444 C   0  0  0  0  0  0  0  0  0  0  0  0
   33.3092  -19.9264   36.0870 C   0  0  0  0  0  0  0  0  0  0  0  0
   32.7905  -18.9371   35.2759 C   0  0  0  0  0  0  0  0  0  0  0  0
   33.4601  -17.7344   35.1342 C   0  0  0  0  0  0  0  0  0  0  0  0
   32.9487  -16.7127   34.3124 O   0  0  0  0  0  0  0  0  0  0  0  0
   34.6432  -17.5636   35.8203 C   0  0  0  0  0  0  0  0  0  0  0  0
   35.1829  -18.5571   36.6472 C   0  0  0  0  0  0  0  0  0  0  0  0
   34.4965  -19.7464   36.7718 C   0  0  0  0  0  0  0  0  0  0  0  0
   34.5151  -22.1846   39.3246 C   0  0  0  0  0  0  0  0  0  0  0  0
   34.0653  -22.7407   40.5684 C   0  0  0  0  0  0  0  0  0  0  0  0
   35.4022  -23.0248   41.2812 C   0  0  0  0  0  0  0  0  0  0  0  0
   36.4519  -22.1895   40.5256 C   0  0  0  0  0  0  0  0  0  0  0  0
   37.3010  -21.5389   41.3976 O   0  0  0  0  0  0  0  0  0  0  0  0
   33.2012  -16.6600   33.3256 H   0  0  0  0  0  0  0  0  0  0  0  0
   37.9489  -22.1870   41.7346 H   0  0  0  0  0  0  0  0  0  0  0  0
   37.1667  -23.0872   39.6095 C   0  0  0  0  0  0  0  0  0  0  0  0
   37.7637  -23.8180   38.8593 C   0  0  0  0  0  0  0  0  0  0  0  0
  2  1  1  0  0  0
  2  3  1  0  0  0
  3  4  1  0  0  0
  4  5  1  0  0  0
  5  6  1  0  0  0
  6  7  1  0  0  0
  7  8  1  0  0  0
  8  9  2  0  0  0
  9 10  1  0  0  0
 10 11  1  0  0  0
 10 12  2  0  0  0
 12 13  1  0  0  0
 13 14  2  0  0  0
  5 15  1  0  0  0
 15 16  1  0  0  0
 16 17  1  0  0  0
 17 18  1  0  0  0
 18 19  1  0  0  0
 18 22  1  0  0  0
 22 23  3  0  0  0
 15  2  1  0  0  0
 18  2  1  0  0  0
 14  4  1  0  0  0
 14  8  1  0  0  0
 11 20  1  0  0  0
 19 21  1  0  0  0
M  END
> <minimizedAffinity>
-4.10677

> <CNNscore>
0.5753895044

> <CNNaffinity>
4.1384077072

> <CNN_VS>
2.3811962605

> <CNNaffinity_variance>
0.0303160846

$$$$
[H]C#C[C@]1(O[H])C([H])([H])C([H])([H])[C@]2([H])[C@]1(C([H])([H])[H])C([H])([H])[C@]1([H])c3c([H])c([H])c(O[H])c([H])c3C([H])([H])C([H])([H])[C@]12[H]


 23 26  0  0  0  0  0  0  0  0999 V2000
   36.9621  -19.9535   35.6921 C   0  0  0  0  0  0  0  0  0  0  0  0
   36.0151  -18.8235   35.9470 C   0  0  0  0  0  0  0  0  0  0  0  0
   35.0491  -19.0585   37.0439 C   0  0  0  0  0  0  0  0  0  0  0  0
   33.7999  -19.4924   36.3748 C   0  0  0  0  0  0  0  0  0  0  0  0
   34.2235  -19.7859   34.9155 C   0  0  0  0  0  0  0  0  0  0  0  0
   32.9898  -19.9025   34.1152 C   0  0  0  0  0  0  0  0  0  0  0  0
   31.8004  -20.4744   34.7941 C   0  0  0  0  0  0  0  0  0  0  0  0
   32.0919  -21.1658   36.0720 C   0  0  0  0  0  0  0  0  0  0  0  0
   31.3680  -22.2779   36.4527 C   0  0  0  0  0  0  0  0  0  0  0  0
   31.6477  -22.9106   37.6511 C   0  0  0  0  0  0  0  0  0  0  0  0
   30.9219  -24.0458   38.0579 O   0  0  0  0  0  0  0  0  0  0  0  0
   32.6576  -22.3988   38.4370 C   0  0  0  0  0  0  0  0  0  0  0  0
   33.4015  -21.2715   38.0654 C   0  0  0  0  0  0  0  0  0  0  0  0
   33.1035  -20.6592   36.8665 C   0  0  0  0  0  0  0  0  0  0  0  0
   35.0553  -18.6136   34.7527 C   0  0  0  0  0  0  0  0  0  0  0  0
   35.9958  -18.3972   33.6911 C   0  0  0  0  0  0  0  0  0  0  0  0
   36.9889  -17.4211   34.3523 C   0  0  0  0  0  0  0  0  0  0  0  0
   36.7286  -17.5384   35.8652 C   0  0  0  0  0  0  0  0  0  0  0  0
   37.9096  -17.6107   36.5757 O   0  0  0  0  0  0  0  0  0  0  0  0
   30.0736  -23.9513   38.6164 H   0  0  0  0  0  0  0  0  0  0  0  0
   38.2873  -16.7122   36.6337 H   0  0  0  0  0  0  0  0  0  0  0  0
   35.8987  -16.3962   36.2688 C   0  0  0  0  0  0  0  0  0  0  0  0
   35.2202  -15.4529   36.5898 C   0  0  0  0  0  0  0  0  0  0  0  0
  2  1  1  0  0  0
  2  3  1  0  0  0
  3  4  1  0  0  0
  4  5  1  0  0  0
  5  6  1  0  0  0
  6  7  1  0  0  0
  7  8  1  0  0  0
  8  9  2  0  0  0
  9 10  1  0  0  0
 10 11  1  0  0  0
 10 12  2  0  0  0
 12 13  1  0  0  0
 13 14  2  0  0  0
  5 15  1  0  0  0
 15 16  1  0  0  0
 16 17  1  0  0  0
 17 18  1  0  0  0
 18 19  1  0  0  0
 18 22  1  0  0  0
 22 23  3  0  0  0
 15  2  1  0  0  0
 18  2  1  0  0  0
 14  4  1  0  0  0
 14  8  1  0  0  0
 11 20  1  0  0  0
 19 21  1  0  0  0
M  END
> <minimizedAffinity>
-5.55827

> <CNNscore>
0.5710863471

> <CNNaffinity>
4.4269871712

> <CNN_VS>
2.5281920433

> <CNNaffinity_variance>
0.3100602627

$$$$
[H]C#C[C@]1(O[H])C([H])([H])C([H])([H])[C@]2([H])[C@]1(C([H])([H])[H])C([H])([H])[C@]1([H])c3c([H])c([H])c(O[H])c([H])c3C([H])([H])C([H])([H])[C@]12[H]


 23 26  0  0  0  0  0  0  0  0999 V2000
   31.8948  -18.4101   33.7511 C   0  0  0  0  0  0  0  0  0  0  0  0
   32.5216  -19.0275   34.9614 C   0  0  0  0  0  0  0  0  0  0  0  0
   32.7861  -18.0856   36.0723 C   0  0  0  0  0  0  0  0  0  0  0  0
   34.2185  -17.7272   35.9448 C   0  0  0  0  0  0  0  0  0  0  0  0
   34.6280  -18.2571   34.5496 C   0  0  0  0  0  0  0  0  0  0  0  0
   36.1016  -18.2338   34.4861 C   0  0  0  0  0  0  0  0  0  0  0  0
   36.7885  -17.1454   35.2253 C   0  0  0  0  0  0  0  0  0  0  0  0
   35.9057  -16.0320   35.6459 C   0  0  0  0  0  0  0  0  0  0  0  0
   36.3737  -14.7336   35.6741 C   0  0  0  0  0  0  0  0  0  0  0  0
   35.5396  -13.7043   36.0738 C   0  0  0  0  0  0  0  0  0  0  0  0
   35.9967  -12.3736   36.1096 O   0  0  0  0  0  0  0  0  0  0  0  0
   34.2474  -14.0174   36.4366 C   0  0  0  0  0  0  0  0  0  0  0  0
   33.7570  -15.3293   36.4136 C   0  0  0  0  0  0  0  0  0  0  0  0
   34.6077  -16.3371   36.0113 C   0  0  0  0  0  0  0  0  0  0  0  0
   33.9521  -19.5313   34.6590 C   0  0  0  0  0  0  0  0  0  0  0  0
   33.6918  -20.4350   33.5754 C   0  0  0  0  0  0  0  0  0  0  0  0
   32.4586  -21.1976   34.0986 C   0  0  0  0  0  0  0  0  0  0  0  0
   31.8997  -20.3319   35.2424 C   0  0  0  0  0  0  0  0  0  0  0  0
   30.5259  -20.2233   35.1674 O   0  0  0  0  0  0  0  0  0  0  0  0
   36.4263  -11.9910   36.9519 H   0  0  0  0  0  0  0  0  0  0  0  0
   30.1346  -21.0527   35.5025 H   0  0  0  0  0  0  0  0  0  0  0  0
   32.3488  -20.9186   36.5114 C   0  0  0  0  0  0  0  0  0  0  0  0
   32.7271  -21.4051   37.5475 C   0  0  0  0  0  0  0  0  0  0  0  0
  2  1  1  0  0  0
  2  3  1  0  0  0
  3  4  1  0  0  0
  4  5  1  0  0  0
  5  6  1  0  0  0
  6  7  1  0  0  0
  7  8  1  0  0  0
  8  9  2  0  0  0
  9 10  1  0  0  0
 10 11  1  0  0  0
 10 12  2  0  0  0
 12 13  1  0  0  0
 13 14  2  0  0  0
  5 15  1  0  0  0
 15 16  1  0  0  0
 16 17  1  0  0  0
 17 18  1  0  0  0
 18 19  1  0  0  0
 18 22  1  0  0  0
 22 23  3  0  0  0
 15  2  1  0  0  0
 18  2  1  0  0  0
 14  4  1  0  0  0
 14  8  1  0  0  0
 11 20  1  0  0  0
 19 21  1  0  0  0
M  END
> <minimizedAffinity>
-5.73832

> <CNNscore>
0.5647073984

> <CNNaffinity>
4.7198438644

> <CNN_VS>
2.6653306484

> <CNNaffinity_variance>
0.3252399564

$$$$
[H]C#C[C@]1(O[H])C([H])([H])C([H])([H])[C@]2([H])[C@]1(C([H])([H])[H])C([H])([H])[C@]1([H])c3c([H])c([H])c(O[H])c([H])c3C([H])([H])C([H])([H])[C@]12[H]


 23 26  0  0  0  0  0  0  0  0999 V2000
   37.5355  -17.8578   36.7182 C   0  0  0  0  0  0  0  0  0  0  0  0
   37.6096  -19.1582   35.9817 C   0  0  0  0  0  0  0  0  0  0  0  0
   36.6006  -19.3238   34.9113 C   0  0  0  0  0  0  0  0  0  0  0  0
   35.5176  -20.1319   35.5201 C   0  0  0  0  0  0  0  0  0  0  0  0
   35.8320  -20.1225   37.0354 C   0  0  0  0  0  0  0  0  0  0  0  0
   34.9991  -21.1658   37.6632 C   0  0  0  0  0  0  0  0  0  0  0  0
   33.6615  -21.4064   37.0665 C   0  0  0  0  0  0  0  0  0  0  0  0
   33.1986  -20.3460   36.1409 C   0  0  0  0  0  0  0  0  0  0  0  0
   31.8610  -20.0134   36.0628 C   0  0  0  0  0  0  0  0  0  0  0  0
   31.4421  -19.0244   35.1902 C   0  0  0  0  0  0  0  0  0  0  0  0
   30.0834  -18.6699   35.0951 O   0  0  0  0  0  0  0  0  0  0  0  0
   32.3924  -18.3948   34.4155 C   0  0  0  0  0  0  0  0  0  0  0  0
   33.7532  -18.7204   34.4826 C   0  0  0  0  0  0  0  0  0  0  0  0
   34.1451  -19.7091   35.3601 C   0  0  0  0  0  0  0  0  0  0  0  0
   37.2548  -20.3479   36.9039 C   0  0  0  0  0  0  0  0  0  0  0  0
   38.2278  -20.1767   37.9444 C   0  0  0  0  0  0  0  0  0  0  0  0
   39.5058  -19.8969   37.1293 C   0  0  0  0  0  0  0  0  0  0  0  0
   39.0148  -19.5120   35.7217 C   0  0  0  0  0  0  0  0  0  0  0  0
   39.6933  -18.4135   35.2341 O   0  0  0  0  0  0  0  0  0  0  0  0
   29.4658  -19.1394   34.4328 H   0  0  0  0  0  0  0  0  0  0  0  0
   40.5729  -18.7077   34.9292 H   0  0  0  0  0  0  0  0  0  0  0  0
   39.1578  -20.6904   34.8575 C   0  0  0  0  0  0  0  0  0  0  0  0
   39.2833  -21.6626   34.1557 C   0  0  0  0  0  0  0  0  0  0  0  0
  2  1  1  0  0  0
  2  3  1  0  0  0
  3  4  1  0  0  0
  4  5  1  0  0  0
  5  6  1  0  0  0
  6  7  1  0  0  0
  7  8  1  0  0  0
  8  9  2  0  0  0
  9 10  1  0  0  0
 10 11  1  0  0  0
 10 12  2  0  0  0
 12 13  1  0  0  0
 13 14  2  0  0  0
  5 15  1  0  0  0
 15 16  1  0  0  0
 16 17  1  0  0  0
 17 18  1  0  0  0
 18 19  1  0  0  0
 18 22  1  0  0  0
 22 23  3  0  0  0
 15  2  1  0  0  0
 18  2  1  0  0  0
 14  4  1  0  0  0
 14  8  1  0  0  0
 11 20  1  0  0  0
 19 21  1  0  0  0
M  END
> <minimizedAffinity>
-5.17462

> <CNNscore>
0.5630725622

> <CNNaffinity>
4.5359630585

> <CNN_VS>
2.5540764332

> <CNNaffinity_variance>
0.0937317908

$$$$
[H]C#C[C@]1(O[H])C([H])([H])C([H])([H])[C@]2([H])[C@]1(C([H])([H])[H])C([H])([H])[C@]1([H])c3c([H])c([H])c(O[H])c([H])c3C([H])([H])C([H])([H])[C@]12[H]


 23 26  0  0  0  0  0  0  0  0999 V2000
   29.8382  -23.3685   38.2682 C   0  0  0  0  0  0  0  0  0  0  0  0
   29.9506  -23.6555   36.8040 C   0  0  0  0  0  0  0  0  0  0  0  0
   31.2862  -23.3950   36.2211 C   0  0  0  0  0  0  0  0  0  0  0  0
   31.1817  -22.0563   35.5940 C   0  0  0  0  0  0  0  0  0  0  0  0
   29.8512  -21.4783   36.1331 C   0  0  0  0  0  0  0  0  0  0  0  0
   29.5171  -20.3018   35.3082 C   0  0  0  0  0  0  0  0  0  0  0  0
   30.6538  -19.4991   34.7920 C   0  0  0  0  0  0  0  0  0  0  0  0
   31.9539  -19.7778   35.4461 C   0  0  0  0  0  0  0  0  0  0  0  0
   32.8747  -18.7682   35.6426 C   0  0  0  0  0  0  0  0  0  0  0  0
   34.0869  -19.0439   36.2503 C   0  0  0  0  0  0  0  0  0  0  0  0
   35.0395  -18.0293   36.4604 O   0  0  0  0  0  0  0  0  0  0  0  0
   34.3371  -20.3405   36.6451 C   0  0  0  0  0  0  0  0  0  0  0  0
   33.4137  -21.3762   36.4530 C   0  0  0  0  0  0  0  0  0  0  0  0
   32.2130  -21.0758   35.8454 C   0  0  0  0  0  0  0  0  0  0  0  0
   29.0756  -22.6888   35.9725 C   0  0  0  0  0  0  0  0  0  0  0  0
   27.7851  -22.9370   36.5483 C   0  0  0  0  0  0  0  0  0  0  0  0
   27.7709  -24.4765   36.6229 C   0  0  0  0  0  0  0  0  0  0  0  0
   29.2428  -24.9046   36.4785 C   0  0  0  0  0  0  0  0  0  0  0  0
   29.5746  -25.8844   37.3920 O   0  0  0  0  0  0  0  0  0  0  0  0
   35.7470  -17.8226   35.7553 H   0  0  0  0  0  0  0  0  0  0  0  0
   29.2172  -26.7348   37.0721 H   0  0  0  0  0  0  0  0  0  0  0  0
   29.4518  -25.3359   35.0905 C   0  0  0  0  0  0  0  0  0  0  0  0
   29.6160  -25.6811   33.9472 C   0  0  0  0  0  0  0  0  0  0  0  0
  2  1  1  0  0  0
  2  3  1  0  0  0
  3  4  1  0  0  0
  4  5  1  0  0  0
  5  6  1  0  0  0
  6  7  1  0  0  0
  7  8  1  0  0  0
  8  9  2  0  0  0
  9 10  1  0  0  0
 10 11  1  0  0  0
 10 12  2  0  0  0
 12 13  1  0  0  0
 13 14  2  0  0  0
  5 15  1  0  0  0
 15 16  1  0  0  0
 16 17  1  0  0  0
 17 18  1  0  0  0
 18 19  1  0  0  0
 18 22  1  0  0  0
 22 23  3  0  0  0
 15  2  1  0  0  0
 18  2  1  0  0  0
 14  4  1  0  0  0
 14  8  1  0  0  0
 11 20  1  0  0  0
 19 21  1  0  0  0
M  END
> <minimizedAffinity>
-4.62641

> <CNNscore>
0.5595457554

> <CNNaffinity>
4.1161627769

> <CNN_VS>
2.3031814098

> <CNNaffinity_variance>
0.2308342159

$$$$
[H]Oc1c([H])c([H])c2c(c1[H])C([H])([H])C([H])([H])[C@]1([H])[C@]2([H])C([H])([H])C([H])([H])[C@@]2(C([H])([H])[H])[C@@]1([H])C([H])([H])C([H])([H])[C@@]2(O[H])C([H])=C([H])[H]


 24 27  0  0  0  0  0  0  0  0999 V2000
   34.8364  -17.1954   36.0395 C   0  0  0  0  0  0  0  0  0  0  0  0
   35.3830  -18.4117   35.3274 C   0  0  0  0  0  0  0  0  0  0  0  0
   34.6505  -18.6973   34.0714 C   0  0  0  0  0  0  0  0  0  0  0  0
   33.2226  -19.0285   34.4054 C   0  0  0  0  0  0  0  0  0  0  0  0
   33.1531  -20.1683   35.3686 C   0  0  0  0  0  0  0  0  0  0  0  0
   33.9219  -19.8547   36.6447 C   0  0  0  0  0  0  0  0  0  0  0  0
   33.8579  -20.9536   37.6446 C   0  0  0  0  0  0  0  0  0  0  0  0
   32.8409  -22.0063   37.3770 C   0  0  0  0  0  0  0  0  0  0  0  0
   31.6043  -21.4667   36.7420 C   0  0  0  0  0  0  0  0  0  0  0  0
   30.3549  -21.8857   37.1598 C   0  0  0  0  0  0  0  0  0  0  0  0
   29.2240  -21.3732   36.5587 C   0  0  0  0  0  0  0  0  0  0  0  0
   27.9370  -21.7594   36.9389 O   0  0  0  0  0  0  0  0  0  0  0  0
   29.4088  -20.4481   35.5493 C   0  0  0  0  0  0  0  0  0  0  0  0
   30.6585  -20.0313   35.1340 C   0  0  0  0  0  0  0  0  0  0  0  0
   31.7894  -20.5424   35.7336 C   0  0  0  0  0  0  0  0  0  0  0  0
   35.3398  -19.6511   36.2176 C   0  0  0  0  0  0  0  0  0  0  0  0
   36.2902  -19.2961   37.2951 C   0  0  0  0  0  0  0  0  0  0  0  0
   37.3158  -18.3717   36.6292 C   0  0  0  0  0  0  0  0  0  0  0  0
   36.8621  -18.2340   35.1826 C   0  0  0  0  0  0  0  0  0  0  0  0
   37.1164  -16.9093   34.7892 O   0  0  0  0  0  0  0  0  0  0  0  0
   27.5595  -22.5636   36.4331 H   0  0  0  0  0  0  0  0  0  0  0  0
   37.1873  -16.9354   33.7837 H   0  0  0  0  0  0  0  0  0  0  0  0
   37.5052  -19.1991   34.2913 C   0  0  0  0  0  0  0  0  0  0  0  0
   38.7055  -19.0461   33.7462 C   0  0  0  0  0  0  0  0  0  0  0  0
  2  1  1  0  0  0
  2  3  1  0  0  0
  3  4  1  0  0  0
  4  5  1  0  0  0
  5  6  1  0  0  0
  6  7  1  0  0  0
  7  8  1  0  0  0
  8  9  1  0  0  0
  9 10  2  0  0  0
 10 11  1  0  0  0
 11 12  1  0  0  0
 11 13  2  0  0  0
 13 14  1  0  0  0
 14 15  2  0  0  0
  6 16  1  0  0  0
 16 17  1  0  0  0
 17 18  1  0  0  0
 18 19  1  0  0  0
 19 20  1  0  0  0
 19 23  1  0  0  0
 23 24  2  0  0  0
 16  2  1  0  0  0
 19  2  1  0  0  0
 15  5  1  0  0  0
 15  9  1  0  0  0
 12 21  1  0  0  0
 20 22  1  0  0  0
M  END
> <minimizedAffinity>
-6.51311

> <CNNscore>
0.7035393715

> <CNNaffinity>
4.7817063332

> <CNN_VS>
3.3641185760

> <CNNaffinity_variance>
0.2259060442

$$$$
[H]Oc1c([H])c([H])c2c(c1[H])C([H])([H])C([H])([H])[C@]1([H])[C@]2([H])C([H])([H])C([H])([H])[C@@]2(C([H])([H])[H])[C@@]1([H])C([H])([H])C([H])([H])[C@@]2(O[H])C([H])=C([H])[H]


 24 27  0  0  0  0  0  0  0  0999 V2000
   36.5579  -19.8309   35.5362 C   0  0  0  0  0  0  0  0  0  0  0  0
   35.8817  -18.7772   36.3834 C   0  0  0  0  0  0  0  0  0  0  0  0
   35.4085  -19.3227   37.6772 C   0  0  0  0  0  0  0  0  0  0  0  0
   34.3593  -20.3660   37.4109 C   0  0  0  0  0  0  0  0  0  0  0  0
   33.2420  -19.7999   36.5968 C   0  0  0  0  0  0  0  0  0  0  0  0
   33.7553  -19.2364   35.2789 C   0  0  0  0  0  0  0  0  0  0  0  0
   32.6714  -18.6846   34.4233 C   0  0  0  0  0  0  0  0  0  0  0  0
   31.2858  -19.0371   34.8359 C   0  0  0  0  0  0  0  0  0  0  0  0
   31.1877  -20.4054   35.4204 C   0  0  0  0  0  0  0  0  0  0  0  0
   30.1451  -21.2465   35.0787 C   0  0  0  0  0  0  0  0  0  0  0  0
   30.0739  -22.5085   35.6312 C   0  0  0  0  0  0  0  0  0  0  0  0
   29.0445  -23.4006   35.3234 O   0  0  0  0  0  0  0  0  0  0  0  0
   31.0723  -22.8686   36.5155 C   0  0  0  0  0  0  0  0  0  0  0  0
   32.1128  -22.0260   36.8550 C   0  0  0  0  0  0  0  0  0  0  0  0
   32.1855  -20.7648   36.3039 C   0  0  0  0  0  0  0  0  0  0  0  0
   34.7012  -18.1414   35.6535 C   0  0  0  0  0  0  0  0  0  0  0  0
   35.3652  -17.4524   34.5245 C   0  0  0  0  0  0  0  0  0  0  0  0
   36.7528  -17.0726   35.0539 C   0  0  0  0  0  0  0  0  0  0  0  0
   36.8044  -17.6027   36.4800 C   0  0  0  0  0  0  0  0  0  0  0  0
   38.1084  -18.0763   36.7027 O   0  0  0  0  0  0  0  0  0  0  0  0
   28.2243  -23.3409   35.9308 H   0  0  0  0  0  0  0  0  0  0  0  0
   38.2376  -18.0508   37.7025 H   0  0  0  0  0  0  0  0  0  0  0  0
   36.4121  -16.6024   37.4724 C   0  0  0  0  0  0  0  0  0  0  0  0
   36.8338  -15.3441   37.4894 C   0  0  0  0  0  0  0  0  0  0  0  0
  2  1  1  0  0  0
  2  3  1  0  0  0
  3  4  1  0  0  0
  4  5  1  0  0  0
  5  6  1  0  0  0
  6  7  1  0  0  0
  7  8  1  0  0  0
  8  9  1  0  0  0
  9 10  2  0  0  0
 10 11  1  0  0  0
 11 12  1  0  0  0
 11 13  2  0  0  0
 13 14  1  0  0  0
 14 15  2  0  0  0
  6 16  1  0  0  0
 16 17  1  0  0  0
 17 18  1  0  0  0
 18 19  1  0  0  0
 19 20  1  0  0  0
 19 23  1  0  0  0
 23 24  2  0  0  0
 16  2  1  0  0  0
 19  2  1  0  0  0
 15  5  1  0  0  0
 15  9  1  0  0  0
 12 21  1  0  0  0
 20 22  1  0  0  0
M  END
> <minimizedAffinity>
-6.33150

> <CNNscore>
0.6429089904

> <CNNaffinity>
4.7867903709

> <CNN_VS>
3.0774705410

> <CNNaffinity_variance>
0.2398017943

$$$$
[H]Oc1c([H])c([H])c2c(c1[H])C([H])([H])C([H])([H])[C@]1([H])[C@]2([H])C([H])([H])C([H])([H])[C@@]2(C([H])([H])[H])[C@@]1([H])C([H])([H])C([H])([H])[C@@]2(O[H])C([H])=C([H])[H]


 24 27  0  0  0  0  0  0  0  0999 V2000
   31.4715  -22.7285   34.7783 C   0  0  0  0  0  0  0  0  0  0  0  0
   30.8919  -21.5833   35.5768 C   0  0  0  0  0  0  0  0  0  0  0  0
   30.8220  -20.3324   34.7856 C   0  0  0  0  0  0  0  0  0  0  0  0
   32.2176  -19.9089   34.4206 C   0  0  0  0  0  0  0  0  0  0  0  0
   33.0627  -19.7550   35.6428 C   0  0  0  0  0  0  0  0  0  0  0  0
   33.1091  -21.0492   36.4433 C   0  0  0  0  0  0  0  0  0  0  0  0
   33.9620  -20.9493   37.6574 C   0  0  0  0  0  0  0  0  0  0  0  0
   34.8432  -19.7522   37.7259 C   0  0  0  0  0  0  0  0  0  0  0  0
   35.3508  -19.3313   36.3886 C   0  0  0  0  0  0  0  0  0  0  0  0
   36.6708  -18.9566   36.2197 C   0  0  0  0  0  0  0  0  0  0  0  0
   37.1194  -18.5711   34.9735 C   0  0  0  0  0  0  0  0  0  0  0  0
   38.4409  -18.1825   34.7437 O   0  0  0  0  0  0  0  0  0  0  0  0
   36.2021  -18.5816   33.9405 C   0  0  0  0  0  0  0  0  0  0  0  0
   34.8839  -18.9564   34.1121 C   0  0  0  0  0  0  0  0  0  0  0  0
   34.4341  -19.3420   35.3566 C   0  0  0  0  0  0  0  0  0  0  0  0
   31.6959  -21.3203   36.8475 C   0  0  0  0  0  0  0  0  0  0  0  0
   31.4764  -22.5634   37.6201 C   0  0  0  0  0  0  0  0  0  0  0  0
   30.0857  -23.0510   37.1978 C   0  0  0  0  0  0  0  0  0  0  0  0
   29.5957  -22.0436   36.1671 C   0  0  0  0  0  0  0  0  0  0  0  0
   28.8878  -22.7594   35.1869 O   0  0  0  0  0  0  0  0  0  0  0  0
   38.6253  -17.1841   34.8633 H   0  0  0  0  0  0  0  0  0  0  0  0
   28.2661  -22.0898   34.7603 H   0  0  0  0  0  0  0  0  0  0  0  0
   28.7841  -20.9783   36.7552 C   0  0  0  0  0  0  0  0  0  0  0  0
   27.8301  -21.1622   37.6592 C   0  0  0  0  0  0  0  0  0  0  0  0
  2  1  1  0  0  0
  2  3  1  0  0  0
  3  4  1  0  0  0
  4  5  1  0  0  0
  5  6  1  0  0  0
  6  7  1  0  0  0
  7  8  1  0  0  0
  8  9  1  0  0  0
  9 10  2  0  0  0
 10 11  1  0  0  0
 11 12  1  0  0  0
 11 13  2  0  0  0
 13 14  1  0  0  0
 14 15  2  0  0  0
  6 16  1  0  0  0
 16 17  1  0  0  0
 17 18  1  0  0  0
 18 19  1  0  0  0
 19 20  1  0  0  0
 19 23  1  0  0  0
 23 24  2  0  0  0
 16  2  1  0  0  0
 19  2  1  0  0  0
 15  5  1  0  0  0
 15  9  1  0  0  0
 12 21  1  0  0  0
 20 22  1  0  0  0
M  END
> <minimizedAffinity>
-6.22467

> <CNNscore>
0.6128005981

> <CNNaffinity>
4.5825891495

> <CNN_VS>
2.8082134724

> <CNNaffinity_variance>
0.2256826460

$$$$
[H]Oc1c([H])c([H])c2c(c1[H])C([H])([H])C([H])([H])[C@]1([H])[C@]2([H])C([H])([H])C([H])([H])[C@@]2(C([H])([H])[H])[C@@]1([H])C([H])([H])C([H])([H])[C@@]2(O[H])C([H])=C([H])[H]


 24 27  0  0  0  0  0  0  0  0999 V2000
   34.2890  -19.5074   33.8254 C   0  0  0  0  0  0  0  0  0  0  0  0
   33.3178  -19.3291   34.9700 C   0  0  0  0  0  0  0  0  0  0  0  0
   32.5709  -18.0530   34.8726 C   0  0  0  0  0  0  0  0  0  0  0  0
   33.5425  -16.9110   34.9813 C   0  0  0  0  0  0  0  0  0  0  0  0
   34.3331  -17.0048   36.2454 C   0  0  0  0  0  0  0  0  0  0  0  0
   35.0815  -18.3282   36.3265 C   0  0  0  0  0  0  0  0  0  0  0  0
   35.9039  -18.4542   37.5590 C   0  0  0  0  0  0  0  0  0  0  0  0
   36.1014  -17.1969   38.3300 C   0  0  0  0  0  0  0  0  0  0  0  0
   36.1988  -15.9927   37.4561 C   0  0  0  0  0  0  0  0  0  0  0  0
   37.1489  -15.0182   37.6991 C   0  0  0  0  0  0  0  0  0  0  0  0
   37.2215  -13.9123   36.8777 C   0  0  0  0  0  0  0  0  0  0  0  0
   38.1598  -12.8970   37.0749 O   0  0  0  0  0  0  0  0  0  0  0  0
   36.3191  -13.8398   35.8341 C   0  0  0  0  0  0  0  0  0  0  0  0
   35.3709  -14.8150   35.5938 C   0  0  0  0  0  0  0  0  0  0  0  0
   35.2971  -15.9206   36.4135 C   0  0  0  0  0  0  0  0  0  0  0  0
   34.0253  -19.3858   36.3216 C   0  0  0  0  0  0  0  0  0  0  0  0
   34.5146  -20.7820   36.3606 C   0  0  0  0  0  0  0  0  0  0  0  0
   33.4948  -21.5816   35.5417 C   0  0  0  0  0  0  0  0  0  0  0  0
   32.4743  -20.5627   35.0542 C   0  0  0  0  0  0  0  0  0  0  0  0
   32.0992  -20.9368   33.7528 O   0  0  0  0  0  0  0  0  0  0  0  0
   37.8522  -12.1360   37.6843 H   0  0  0  0  0  0  0  0  0  0  0  0
   31.1907  -20.5250   33.6049 H   0  0  0  0  0  0  0  0  0  0  0  0
   31.3175  -20.4478   35.9419 C   0  0  0  0  0  0  0  0  0  0  0  0
   30.0784  -20.8003   35.6232 C   0  0  0  0  0  0  0  0  0  0  0  0
  2  1  1  0  0  0
  2  3  1  0  0  0
  3  4  1  0  0  0
  4  5  1  0  0  0
  5  6  1  0  0  0
  6  7  1  0  0  0
  7  8  1  0  0  0
  8  9  1  0  0  0
  9 10  2  0  0  0
 10 11  1  0  0  0
 11 12  1  0  0  0
 11 13  2  0  0  0
 13 14  1  0  0  0
 14 15  2  0  0  0
  6 16  1  0  0  0
 16 17  1  0  0  0
 17 18  1  0  0  0
 18 19  1  0  0  0
 19 20  1  0  0  0
 19 23  1  0  0  0
 23 24  2  0  0  0
 16  2  1  0  0  0
 19  2  1  0  0  0
 15  5  1  0  0  0
 15  9  1  0  0  0
 12 21  1  0  0  0
 20 22  1  0  0  0
M  END
> <minimizedAffinity>
-5.85710

> <CNNscore>
0.5904073119

> <CNNaffinity>
4.8542170525

> <CNN_VS>
2.8659651279

> <CNNaffinity_variance>
0.2222000659

$$$$
[H]Oc1c([H])c([H])c2c(c1[H])C([H])([H])C([H])([H])[C@]1([H])[C@]2([H])C([H])([H])C([H])([H])[C@@]2(C([H])([H])[H])[C@@]1([H])C([H])([H])C([H])([H])[C@@]2(O[H])C([H])=C([H])[H]


 24 27  0  0  0  0  0  0  0  0999 V2000
   33.8764  -14.0188   35.6191 C   0  0  0  0  0  0  0  0  0  0  0  0
   34.5740  -13.5157   36.8622 C   0  0  0  0  0  0  0  0  0  0  0  0
   34.0078  -14.1083   38.0967 C   0  0  0  0  0  0  0  0  0  0  0  0
   32.5743  -13.6756   38.2309 C   0  0  0  0  0  0  0  0  0  0  0  0
   32.4661  -12.1856   38.2214 C   0  0  0  0  0  0  0  0  0  0  0  0
   33.0644  -11.6011   36.9493 C   0  0  0  0  0  0  0  0  0  0  0  0
   32.9550  -10.1194   36.8852 C   0  0  0  0  0  0  0  0  0  0  0  0
   32.0415   -9.4996   37.8830 C   0  0  0  0  0  0  0  0  0  0  0  0
   30.8542  -10.3495   38.1853 C   0  0  0  0  0  0  0  0  0  0  0  0
   29.5935   -9.7915   38.2882 C   0  0  0  0  0  0  0  0  0  0  0  0
   28.5088  -10.5964   38.5683 C   0  0  0  0  0  0  0  0  0  0  0  0
   27.2131  -10.0885   38.6840 O   0  0  0  0  0  0  0  0  0  0  0  0
   28.7498  -11.9466   38.7340 C   0  0  0  0  0  0  0  0  0  0  0  0
   30.0105  -12.5014   38.6306 C   0  0  0  0  0  0  0  0  0  0  0  0
   31.0954  -11.6986   38.3507 C   0  0  0  0  0  0  0  0  0  0  0  0
   34.5063  -11.9943   36.9681 C   0  0  0  0  0  0  0  0  0  0  0  0
   35.3046  -11.5630   35.7989 C   0  0  0  0  0  0  0  0  0  0  0  0
   36.3404  -12.6746   35.5955 C   0  0  0  0  0  0  0  0  0  0  0  0
   36.0463  -13.7085   36.6736 C   0  0  0  0  0  0  0  0  0  0  0  0
   36.2617  -14.9760   36.1068 O   0  0  0  0  0  0  0  0  0  0  0  0
   26.9456   -9.7961   39.6264 H   0  0  0  0  0  0  0  0  0  0  0  0
   36.4477  -15.5910   36.8840 H   0  0  0  0  0  0  0  0  0  0  0  0
   36.8445  -13.5107   37.8832 C   0  0  0  0  0  0  0  0  0  0  0  0
   38.1695  -13.4437   37.9155 C   0  0  0  0  0  0  0  0  0  0  0  0
  2  1  1  0  0  0
  2  3  1  0  0  0
  3  4  1  0  0  0
  4  5  1  0  0  0
  5  6  1  0  0  0
  6  7  1  0  0  0
  7  8  1  0  0  0
  8  9  1  0  0  0
  9 10  2  0  0  0
 10 11  1  0  0  0
 11 12  1  0  0  0
 11 13  2  0  0  0
 13 14  1  0  0  0
 14 15  2  0  0  0
  6 16  1  0  0  0
 16 17  1  0  0  0
 17 18  1  0  0  0
 18 19  1  0  0  0
 19 20  1  0  0  0
 19 23  1  0  0  0
 23 24  2  0  0  0
 16  2  1  0  0  0
 19  2  1  0  0  0
 15  5  1  0  0  0
 15  9  1  0  0  0
 12 21  1  0  0  0
 20 22  1  0  0  0
M  END
> <minimizedAffinity>
-4.13940

> <CNNscore>
0.5835310221

> <CNNaffinity>
5.5184984207

> <CNN_VS>
3.2202150822

> <CNNaffinity_variance>
0.0543390289

$$$$
[H]Oc1c([H])c([H])c2c(c1[H])C([H])([H])C([H])([H])[C@]1([H])[C@]2([H])C([H])([H])C([H])([H])[C@@]2(C([H])([H])[H])[C@@]1([H])C([H])([H])C([H])([H])[C@@]2(O[H])C([H])=C([H])[H]


 24 27  0  0  0  0  0  0  0  0999 V2000
   31.0121  -22.2233   37.7223 C   0  0  0  0  0  0  0  0  0  0  0  0
   31.4192  -22.5193   36.2969 C   0  0  0  0  0  0  0  0  0  0  0  0
   32.8209  -22.9912   36.2049 C   0  0  0  0  0  0  0  0  0  0  0  0
   33.7357  -21.8925   36.6699 C   0  0  0  0  0  0  0  0  0  0  0  0
   33.5096  -20.6439   35.8814 C   0  0  0  0  0  0  0  0  0  0  0  0
   32.0611  -20.1865   35.9829 C   0  0  0  0  0  0  0  0  0  0  0  0
   31.7962  -18.9301   35.2328 C   0  0  0  0  0  0  0  0  0  0  0  0
   33.0029  -18.1858   34.7811 C   0  0  0  0  0  0  0  0  0  0  0  0
   34.1374  -18.2864   35.7435 C   0  0  0  0  0  0  0  0  0  0  0  0
   34.8963  -17.1749   36.0597 C   0  0  0  0  0  0  0  0  0  0  0  0
   35.9412  -17.2905   36.9529 C   0  0  0  0  0  0  0  0  0  0  0  0
   36.7413  -16.2029   37.3096 O   0  0  0  0  0  0  0  0  0  0  0  0
   36.1754  -18.5401   37.4934 C   0  0  0  0  0  0  0  0  0  0  0  0
   35.4155  -19.6488   37.1756 C   0  0  0  0  0  0  0  0  0  0  0  0
   34.3710  -19.5351   36.2834 C   0  0  0  0  0  0  0  0  0  0  0  0
   31.2492  -21.2970   35.3983 C   0  0  0  0  0  0  0  0  0  0  0  0
   29.7828  -21.0977   35.4147 C   0  0  0  0  0  0  0  0  0  0  0  0
   29.1950  -22.5011   35.6010 C   0  0  0  0  0  0  0  0  0  0  0  0
   30.3929  -23.4346   35.7058 C   0  0  0  0  0  0  0  0  0  0  0  0
   30.0733  -24.4197   36.6553 O   0  0  0  0  0  0  0  0  0  0  0  0
   37.5651  -16.0605   36.7212 H   0  0  0  0  0  0  0  0  0  0  0  0
   30.6630  -25.2076   36.4356 H   0  0  0  0  0  0  0  0  0  0  0  0
   30.7706  -24.0206   34.4200 C   0  0  0  0  0  0  0  0  0  0  0  0
   30.3667  -25.2049   33.9779 C   0  0  0  0  0  0  0  0  0  0  0  0
  2  1  1  0  0  0
  2  3  1  0  0  0
  3  4  1  0  0  0
  4  5  1  0  0  0
  5  6  1  0  0  0
  6  7  1  0  0  0
  7  8  1  0  0  0
  8  9  1  0  0  0
  9 10  2  0  0  0
 10 11  1  0  0  0
 11 12  1  0  0  0
 11 13  2  0  0  0
 13 14  1  0  0  0
 14 15  2  0  0  0
  6 16  1  0  0  0
 16 17  1  0  0  0
 17 18  1  0  0  0
 18 19  1  0  0  0
 19 20  1  0  0  0
 19 23  1  0  0  0
 23 24  2  0  0  0
 16  2  1  0  0  0
 19  2  1  0  0  0
 15  5  1  0  0  0
 15  9  1  0  0  0
 12 21  1  0  0  0
 20 22  1  0  0  0
M  END
> <minimizedAffinity>
-5.75122

> <CNNscore>
0.5832637548

> <CNNaffinity>
4.4741945267

> <CNN_VS>
2.6096355915

> <CNNaffinity_variance>
0.1400854886

$$$$
[H]Oc1c([H])c([H])c2c(c1[H])C([H])([H])C([H])([H])[C@]1([H])[C@]2([H])C([H])([H])C([H])([H])[C@@]2(C([H])([H])[H])[C@@]1([H])C([H])([H])C([H])([H])[C@@]2(O[H])C([H])=C([H])[H]


 24 27  0  0  0  0  0  0  0  0999 V2000
   38.2253  -17.7506   36.6498 C   0  0  0  0  0  0  0  0  0  0  0  0
   38.3837  -19.0079   35.8256 C   0  0  0  0  0  0  0  0  0  0  0  0
   37.9445  -18.8136   34.4238 C   0  0  0  0  0  0  0  0  0  0  0  0
   36.4737  -18.5026   34.4134 C   0  0  0  0  0  0  0  0  0  0  0  0
   35.6985  -19.5783   35.1018 C   0  0  0  0  0  0  0  0  0  0  0  0
   36.1759  -19.7658   36.5352 C   0  0  0  0  0  0  0  0  0  0  0  0
   35.4131  -20.8111   37.2679 C   0  0  0  0  0  0  0  0  0  0  0  0
   34.1576  -21.2673   36.6124 C   0  0  0  0  0  0  0  0  0  0  0  0
   33.4593  -20.1737   35.8776 C   0  0  0  0  0  0  0  0  0  0  0  0
   32.0871  -20.0286   35.9638 C   0  0  0  0  0  0  0  0  0  0  0  0
   31.4615  -19.0096   35.2759 C   0  0  0  0  0  0  0  0  0  0  0  0
   30.0796  -18.8148   35.3254 O   0  0  0  0  0  0  0  0  0  0  0  0
   32.2609  -18.1720   34.5222 C   0  0  0  0  0  0  0  0  0  0  0  0
   33.6316  -18.3194   34.4381 C   0  0  0  0  0  0  0  0  0  0  0  0
   34.2583  -19.3370   35.1247 C   0  0  0  0  0  0  0  0  0  0  0  0
   37.6091  -20.1768   36.4289 C   0  0  0  0  0  0  0  0  0  0  0  0
   38.3129  -20.3896   37.7132 C   0  0  0  0  0  0  0  0  0  0  0  0
   39.7605  -19.9612   37.4466 C   0  0  0  0  0  0  0  0  0  0  0  0
   39.7880  -19.4966   35.9972 C   0  0  0  0  0  0  0  0  0  0  0  0
   40.6562  -18.3940   35.9283 O   0  0  0  0  0  0  0  0  0  0  0  0
   29.5466  -19.3128   34.6090 H   0  0  0  0  0  0  0  0  0  0  0  0
   40.9632  -18.3518   34.9688 H   0  0  0  0  0  0  0  0  0  0  0  0
   40.1799  -20.5563   35.0684 C   0  0  0  0  0  0  0  0  0  0  0  0
   41.2897  -20.5556   34.3407 C   0  0  0  0  0  0  0  0  0  0  0  0
  2  1  1  0  0  0
  2  3  1  0  0  0
  3  4  1  0  0  0
  4  5  1  0  0  0
  5  6  1  0  0  0
  6  7  1  0  0  0
  7  8  1  0  0  0
  8  9  1  0  0  0
  9 10  2  0  0  0
 10 11  1  0  0  0
 11 12  1  0  0  0
 11 13  2  0  0  0
 13 14  1  0  0  0
 14 15  2  0  0  0
  6 16  1  0  0  0
 16 17  1  0  0  0
 17 18  1  0  0  0
 18 19  1  0  0  0
 19 20  1  0  0  0
 19 23  1  0  0  0
 23 24  2  0  0  0
 16  2  1  0  0  0
 19  2  1  0  0  0
 15  5  1  0  0  0
 15  9  1  0  0  0
 12 21  1  0  0  0
 20 22  1  0  0  0
M  END
> <minimizedAffinity>
-5.54470

> <CNNscore>
0.5628373623

> <CNNaffinity>
4.7908148766

> <CNN_VS>
2.6964495182

> <CNNaffinity_variance>
0.0459189452

$$$$
[H]Oc1c([H])c([H])c2c(c1[H])C([H])([H])C([H])([H])[C@]1([H])[C@]2([H])C([H])([H])C([H])([H])[C@@]2(C([H])([H])[H])[C@@]1([H])C([H])([H])C([H])([H])[C@@]2(O[H])C([H])=C([H])[H]


 24 27  0  0  0  0  0  0  0  0999 V2000
   38.8309  -20.4898   33.9202 C   0  0  0  0  0  0  0  0  0  0  0  0
   39.9641  -21.0256   34.7651 C   0  0  0  0  0  0  0  0  0  0  0  0
   40.0756  -22.5005   34.6760 C   0  0  0  0  0  0  0  0  0  0  0  0
   38.8239  -23.1178   35.2348 C   0  0  0  0  0  0  0  0  0  0  0  0
   38.5830  -22.6556   36.6348 C   0  0  0  0  0  0  0  0  0  0  0  0
   38.4836  -21.1378   36.7011 C   0  0  0  0  0  0  0  0  0  0  0  0
   38.2177  -20.6340   38.0748 C   0  0  0  0  0  0  0  0  0  0  0  0
   37.7999  -21.6624   39.0658 C   0  0  0  0  0  0  0  0  0  0  0  0
   36.9636  -22.7395   38.4627 C   0  0  0  0  0  0  0  0  0  0  0  0
   35.8391  -23.2099   39.1151 C   0  0  0  0  0  0  0  0  0  0  0  0
   35.0796  -24.2068   38.5388 C   0  0  0  0  0  0  0  0  0  0  0  0
   33.9346  -24.7207   39.1513 O   0  0  0  0  0  0  0  0  0  0  0  0
   35.4957  -24.6899   37.3132 C   0  0  0  0  0  0  0  0  0  0  0  0
   36.6196  -24.2180   36.6637 C   0  0  0  0  0  0  0  0  0  0  0  0
   37.3796  -23.2219   37.2381 C   0  0  0  0  0  0  0  0  0  0  0  0
   39.8082  -20.6294   36.2311 C   0  0  0  0  0  0  0  0  0  0  0  0
   39.9473  -19.1570   36.1742 C   0  0  0  0  0  0  0  0  0  0  0  0
   40.8790  -18.8934   34.9858 C   0  0  0  0  0  0  0  0  0  0  0  0
   41.2030  -20.2647   34.4094 C   0  0  0  0  0  0  0  0  0  0  0  0
   41.2575  -20.1283   33.0120 O   0  0  0  0  0  0  0  0  0  0  0  0
   34.0956  -25.5198   39.7683 H   0  0  0  0  0  0  0  0  0  0  0  0
   41.8318  -20.8915   32.6887 H   0  0  0  0  0  0  0  0  0  0  0  0
   42.4390  -20.8303   34.9494 C   0  0  0  0  0  0  0  0  0  0  0  0
   43.4517  -20.1204   35.4307 C   0  0  0  0  0  0  0  0  0  0  0  0
  2  1  1  0  0  0
  2  3  1  0  0  0
  3  4  1  0  0  0
  4  5  1  0  0  0
  5  6  1  0  0  0
  6  7  1  0  0  0
  7  8  1  0  0  0
  8  9  1  0  0  0
  9 10  2  0  0  0
 10 11  1  0  0  0
 11 12  1  0  0  0
 11 13  2  0  0  0
 13 14  1  0  0  0
 14 15  2  0  0  0
  6 16  1  0  0  0
 16 17  1  0  0  0
 17 18  1  0  0  0
 18 19  1  0  0  0
 19 20  1  0  0  0
 19 23  1  0  0  0
 23 24  2  0  0  0
 16  2  1  0  0  0
 19  2  1  0  0  0
 15  5  1  0  0  0
 15  9  1  0  0  0
 12 21  1  0  0  0
 20 22  1  0  0  0
M  END
> <minimizedAffinity>
-3.38505

> <CNNscore>
0.5525237918

> <CNNaffinity>
4.2820301056

> <CNN_VS>
2.3659234047

> <CNNaffinity_variance>
0.0324843638

$$$$
[H]Oc1c([H])c([H])c2c(c1[H])C([H])([H])C([H])([H])[C@]1([H])[C@]2([H])C([H])([H])C([H])([H])[C@@]2(C([H])([H])[H])[C@@]1([H])C([H])([H])C([H])([H])[C@@]2(O[H])C([H])=C([H])[H]


 24 27  0  0  0  0  0  0  0  0999 V2000
   35.0931  -19.1354   34.7093 C   0  0  0  0  0  0  0  0  0  0  0  0
   34.6698  -19.1779   36.1598 C   0  0  0  0  0  0  0  0  0  0  0  0
   33.3651  -18.5105   36.3787 C   0  0  0  0  0  0  0  0  0  0  0  0
   33.5008  -17.0528   36.0367 C   0  0  0  0  0  0  0  0  0  0  0  0
   34.5964  -16.4206   36.8315 C   0  0  0  0  0  0  0  0  0  0  0  0
   35.9226  -17.1308   36.5981 C   0  0  0  0  0  0  0  0  0  0  0  0
   37.0488  -16.5175   37.3511 C   0  0  0  0  0  0  0  0  0  0  0  0
   36.7733  -15.1793   37.9406 C   0  0  0  0  0  0  0  0  0  0  0  0
   35.8679  -14.3505   37.0940 C   0  0  0  0  0  0  0  0  0  0  0  0
   36.1282  -13.0089   36.8846 C   0  0  0  0  0  0  0  0  0  0  0  0
   35.2775  -12.2608   36.0975 C   0  0  0  0  0  0  0  0  0  0  0  0
   35.4899  -10.9027   35.8514 O   0  0  0  0  0  0  0  0  0  0  0  0
   34.1879  -12.9103   35.5501 C   0  0  0  0  0  0  0  0  0  0  0  0
   33.9305  -14.2509   35.7610 C   0  0  0  0  0  0  0  0  0  0  0  0
   34.7795  -14.9998   36.5471 C   0  0  0  0  0  0  0  0  0  0  0  0
   35.7133  -18.5338   37.0691 C   0  0  0  0  0  0  0  0  0  0  0  0
   36.8702  -19.4433   36.9116 C   0  0  0  0  0  0  0  0  0  0  0  0
   36.2561  -20.8194   36.6304 C   0  0  0  0  0  0  0  0  0  0  0  0
   34.7497  -20.5996   36.6210 C   0  0  0  0  0  0  0  0  0  0  0  0
   34.2133  -21.4251   35.6185 O   0  0  0  0  0  0  0  0  0  0  0  0
   35.0524  -10.2678   36.5227 H   0  0  0  0  0  0  0  0  0  0  0  0
   33.2487  -21.5690   35.8750 H   0  0  0  0  0  0  0  0  0  0  0  0
   34.1308  -20.8516   37.9221 C   0  0  0  0  0  0  0  0  0  0  0  0
   33.5881  -22.0042   38.2939 C   0  0  0  0  0  0  0  0  0  0  0  0
  2  1  1  0  0  0
  2  3  1  0  0  0
  3  4  1  0  0  0
  4  5  1  0  0  0
  5  6  1  0  0  0
  6  7  1  0  0  0
  7  8  1  0  0  0
  8  9  1  0  0  0
  9 10  2  0  0  0
 10 11  1  0  0  0
 11 12  1  0  0  0
 11 13  2  0  0  0
 13 14  1  0  0  0
 14 15  2  0  0  0
  6 16  1  0  0  0
 16 17  1  0  0  0
 17 18  1  0  0  0
 18 19  1  0  0  0
 19 20  1  0  0  0
 19 23  1  0  0  0
 23 24  2  0  0  0
 16  2  1  0  0  0
 19  2  1  0  0  0
 15  5  1  0  0  0
 15  9  1  0  0  0
 12 21  1  0  0  0
 20 22  1  0  0  0
M  END
> <minimizedAffinity>
-4.83280

> <CNNscore>
0.5515438318

> <CNNaffinity>
5.0450162888

> <CNN_VS>
2.7825477123

> <CNNaffinity_variance>
0.1010146365

$$$$
[H]Oc1c([H])c([H])c2c(c1[H])C([H])([H])C([H])([H])[C@]1([H])[C@]2([H])C([H])([H])C([H])([H])[C@]2(C([H])([H])[H])[C@](O[H])(C(=O)C([H])([H])O[H])C([H])([H])C([H])([H])[C@]21[H]


 27 30  0  0  0  0  0  0  0  0999 V2000
   35.8271  -20.6197   39.8135 C   0  0  0  0  0  0  0  0  0  0  0  0
   36.5210  -21.5743   38.8692 C   0  0  0  0  0  0  0  0  0  0  0  0
   37.0309  -20.7885   37.7132 C   0  0  0  0  0  0  0  0  0  0  0  0
   35.8393  -20.0740   37.0817 C   0  0  0  0  0  0  0  0  0  0  0  0
   34.7506  -21.0002   36.6968 C   0  0  0  0  0  0  0  0  0  0  0  0
   34.3067  -21.9496   37.7948 C   0  0  0  0  0  0  0  0  0  0  0  0
   33.4080  -23.0056   37.1884 C   0  0  0  0  0  0  0  0  0  0  0  0
   32.7964  -22.6166   35.8863 C   0  0  0  0  0  0  0  0  0  0  0  0
   32.5336  -21.1609   35.7410 C   0  0  0  0  0  0  0  0  0  0  0  0
   31.3733  -20.6554   35.2278 C   0  0  0  0  0  0  0  0  0  0  0  0
   31.2310  -19.2916   35.1350 C   0  0  0  0  0  0  0  0  0  0  0  0
   30.0473  -18.7912   34.6120 O   0  0  0  0  0  0  0  0  0  0  0  0
   32.2445  -18.4558   35.5539 C   0  0  0  0  0  0  0  0  0  0  0  0
   33.4070  -18.9761   36.0683 C   0  0  0  0  0  0  0  0  0  0  0  0
   33.5707  -20.3191   36.1698 C   0  0  0  0  0  0  0  0  0  0  0  0
   35.5425  -22.5803   38.2671 C   0  0  0  0  0  0  0  0  0  0  0  0
   35.4803  -23.6395   39.2780 C   0  0  0  0  0  0  0  0  0  0  0  0
   36.9962  -23.8895   39.4359 C   0  0  0  0  0  0  0  0  0  0  0  0
   37.4562  -22.4364   39.6088 C   0  0  0  0  0  0  0  0  0  0  0  0
   37.2930  -22.2039   41.0001 O   0  0  0  0  0  0  0  0  0  0  0  0
   30.0170  -18.6447   33.6022 H   0  0  0  0  0  0  0  0  0  0  0  0
   37.4053  -23.0237   41.5146 H   0  0  0  0  0  0  0  0  0  0  0  0
   38.8859  -22.2654   39.3591 C   0  0  0  0  0  0  0  0  0  0  0  0
   39.4425  -23.1425   38.7200 O   0  0  0  0  0  0  0  0  0  0  0  0
   39.7535  -21.1604   39.7824 C   0  0  0  0  0  0  0  0  0  0  0  0
   39.7484  -20.8650   41.1104 O   0  0  0  0  0  0  0  0  0  0  0  0
   40.5596  -21.2915   41.5305 H   0  0  0  0  0  0  0  0  0  0  0  0
  2  1  1  0  0  0
  2  3  1  0  0  0
  3  4  1  0  0  0
  4  5  1  0  0  0
  5  6  1  0  0  0
  6  7  1  0  0  0
  7  8  1  0  0  0
  8  9  1  0  0  0
  9 10  2  0  0  0
 10 11  1  0  0  0
 11 12  1  0  0  0
 11 13  2  0  0  0
 13 14  1  0  0  0
 14 15  2  0  0  0
  6 16  1  0  0  0
 16 17  1  0  0  0
 17 18  1  0  0  0
 18 19  1  0  0  0
 19 20  1  0  0  0
 19 23  1  0  0  0
 23 24  2  0  0  0
 23 25  1  0  0  0
 25 26  1  0  0  0
 16  2  1  0  0  0
 19  2  1  0  0  0
 15  5  1  0  0  0
 15  9  1  0  0  0
 12 21  1  0  0  0
 20 22  1  0  0  0
 26 27  1  0  0  0
M  END
> <minimizedAffinity>
-3.88686

> <CNNscore>
0.5295979381

> <CNNaffinity>
4.0769815445

> <CNN_VS>
2.1591610909

> <CNNaffinity_variance>
0.0621787496

$$$$
[H]Oc1c([H])c([H])c2c(c1[H])C([H])([H])C([H])([H])[C@]1([H])[C@]2([H])C([H])([H])C([H])([H])[C@]2(C([H])([H])[H])[C@](O[H])(C(=O)C([H])([H])O[H])C([H])([H])C([H])([H])[C@]21[H]


 27 30  0  0  0  0  0  0  0  0999 V2000
   36.0070  -20.9614   35.6183 C   0  0  0  0  0  0  0  0  0  0  0  0
   35.7322  -19.5005   35.8920 C   0  0  0  0  0  0  0  0  0  0  0  0
   35.2417  -19.3791   37.2914 C   0  0  0  0  0  0  0  0  0  0  0  0
   34.0032  -20.2613   37.4226 C   0  0  0  0  0  0  0  0  0  0  0  0
   32.9561  -19.9350   36.4284 C   0  0  0  0  0  0  0  0  0  0  0  0
   33.4415  -19.8747   34.9915 C   0  0  0  0  0  0  0  0  0  0  0  0
   32.3515  -19.2644   34.1370 C   0  0  0  0  0  0  0  0  0  0  0  0
   30.9892  -19.3360   34.7370 C   0  0  0  0  0  0  0  0  0  0  0  0
   30.7597  -20.5233   35.6013 C   0  0  0  0  0  0  0  0  0  0  0  0
   29.6225  -21.2779   35.5531 C   0  0  0  0  0  0  0  0  0  0  0  0
   29.5090  -22.3563   36.3975 C   0  0  0  0  0  0  0  0  0  0  0  0
   28.3486  -23.1146   36.3384 O   0  0  0  0  0  0  0  0  0  0  0  0
   30.5279  -22.6644   37.2740 C   0  0  0  0  0  0  0  0  0  0  0  0
   31.6670  -21.8978   37.3132 C   0  0  0  0  0  0  0  0  0  0  0  0
   31.8020  -20.8284   36.4894 C   0  0  0  0  0  0  0  0  0  0  0  0
   34.5941  -18.9699   35.0230 C   0  0  0  0  0  0  0  0  0  0  0  0
   35.2652  -18.6004   33.7737 C   0  0  0  0  0  0  0  0  0  0  0  0
   36.3850  -17.7205   34.3713 C   0  0  0  0  0  0  0  0  0  0  0  0
   36.8745  -18.6765   35.4665 C   0  0  0  0  0  0  0  0  0  0  0  0
   37.8091  -19.5023   34.7877 O   0  0  0  0  0  0  0  0  0  0  0  0
   27.5827  -22.8308   36.9507 H   0  0  0  0  0  0  0  0  0  0  0  0
   38.2363  -19.0275   34.0518 H   0  0  0  0  0  0  0  0  0  0  0  0
   37.6491  -17.9961   36.5023 C   0  0  0  0  0  0  0  0  0  0  0  0
   37.2245  -16.9209   36.8911 O   0  0  0  0  0  0  0  0  0  0  0  0
   38.8896  -18.4428   37.1460 C   0  0  0  0  0  0  0  0  0  0  0  0
   40.0257  -18.3342   36.4054 O   0  0  0  0  0  0  0  0  0  0  0  0
   40.5091  -17.4973   36.6921 H   0  0  0  0  0  0  0  0  0  0  0  0
  2  1  1  0  0  0
  2  3  1  0  0  0
  3  4  1  0  0  0
  4  5  1  0  0  0
  5  6  1  0  0  0
  6  7  1  0  0  0
  7  8  1  0  0  0
  8  9  1  0  0  0
  9 10  2  0  0  0
 10 11  1  0  0  0
 11 12  1  0  0  0
 11 13  2  0  0  0
 13 14  1  0  0  0
 14 15  2  0  0  0
  6 16  1  0  0  0
 16 17  1  0  0  0
 17 18  1  0  0  0
 18 19  1  0  0  0
 19 20  1  0  0  0
 19 23  1  0  0  0
 23 24  2  0  0  0
 23 25  1  0  0  0
 25 26  1  0  0  0
 16  2  1  0  0  0
 19  2  1  0  0  0
 15  5  1  0  0  0
 15  9  1  0  0  0
 12 21  1  0  0  0
 20 22  1  0  0  0
 26 27  1  0  0  0
M  END
> <minimizedAffinity>
-4.62457

> <CNNscore>
0.5108913183

> <CNNaffinity>
4.6187353134

> <CNN_VS>
2.3596718311

> <CNNaffinity_variance>
0.1238143817

$$$$
[H]Oc1c([H])c([H])c2c(c1[H])C([H])([H])C([H])([H])[C@]1([H])[C@]2([H])C([H])([H])C([H])([H])[C@]2(C([H])([H])[H])[C@](O[H])(C(=O)C([H])([H])O[H])C([H])([H])C([H])([H])[C@]21[H]


 27 30  0  0  0  0  0  0  0  0999 V2000
   31.3694  -22.2792   37.8491 C   0  0  0  0  0  0  0  0  0  0  0  0
   31.0244  -22.5558   36.4038 C   0  0  0  0  0  0  0  0  0  0  0  0
   32.2245  -23.1422   35.7485 C   0  0  0  0  0  0  0  0  0  0  0  0
   33.3712  -22.1491   35.9161 C   0  0  0  0  0  0  0  0  0  0  0  0
   33.0467  -20.8020   35.3952 C   0  0  0  0  0  0  0  0  0  0  0  0
   31.7374  -20.2241   35.9006 C   0  0  0  0  0  0  0  0  0  0  0  0
   31.4024  -18.9952   35.0832 C   0  0  0  0  0  0  0  0  0  0  0  0
   32.5701  -18.3842   34.3874 C   0  0  0  0  0  0  0  0  0  0  0  0
   33.8637  -18.5434   35.1017 C   0  0  0  0  0  0  0  0  0  0  0  0
   34.7698  -17.5321   35.2475 C   0  0  0  0  0  0  0  0  0  0  0  0
   35.9383  -17.7847   35.9254 C   0  0  0  0  0  0  0  0  0  0  0  0
   36.8502  -16.7485   36.0665 O   0  0  0  0  0  0  0  0  0  0  0  0
   36.1845  -19.0377   36.4456 C   0  0  0  0  0  0  0  0  0  0  0  0
   35.2655  -20.0470   36.2924 C   0  0  0  0  0  0  0  0  0  0  0  0
   34.1047  -19.8217   35.6271 C   0  0  0  0  0  0  0  0  0  0  0  0
   30.7412  -21.2662   35.6365 C   0  0  0  0  0  0  0  0  0  0  0  0
   29.3257  -21.0092   35.9160 C   0  0  0  0  0  0  0  0  0  0  0  0
   28.7640  -22.3939   35.5254 C   0  0  0  0  0  0  0  0  0  0  0  0
   29.7436  -23.2741   36.3118 C   0  0  0  0  0  0  0  0  0  0  0  0
   29.1601  -23.3402   37.6047 O   0  0  0  0  0  0  0  0  0  0  0  0
   37.5523  -16.6513   35.3319 H   0  0  0  0  0  0  0  0  0  0  0  0
   28.1896  -23.2643   37.5625 H   0  0  0  0  0  0  0  0  0  0  0  0
   29.7678  -24.6549   35.8337 C   0  0  0  0  0  0  0  0  0  0  0  0
   29.6301  -24.8251   34.6338 O   0  0  0  0  0  0  0  0  0  0  0  0
   29.9385  -25.8825   36.6189 C   0  0  0  0  0  0  0  0  0  0  0  0
   30.7668  -25.7992   37.6951 O   0  0  0  0  0  0  0  0  0  0  0  0
   30.1993  -25.6845   38.5204 H   0  0  0  0  0  0  0  0  0  0  0  0
  2  1  1  0  0  0
  2  3  1  0  0  0
  3  4  1  0  0  0
  4  5  1  0  0  0
  5  6  1  0  0  0
  6  7  1  0  0  0
  7  8  1  0  0  0
  8  9  1  0  0  0
  9 10  2  0  0  0
 10 11  1  0  0  0
 11 12  1  0  0  0
 11 13  2  0  0  0
 13 14  1  0  0  0
 14 15  2  0  0  0
  6 16  1  0  0  0
 16 17  1  0  0  0
 17 18  1  0  0  0
 18 19  1  0  0  0
 19 20  1  0  0  0
 19 23  1  0  0  0
 23 24  2  0  0  0
 23 25  1  0  0  0
 25 26  1  0  0  0
 16  2  1  0  0  0
 19  2  1  0  0  0
 15  5  1  0  0  0
 15  9  1  0  0  0
 12 21  1  0  0  0
 20 22  1  0  0  0
 26 27  1  0  0  0
M  END
> <minimizedAffinity>
-5.26024

> <CNNscore>
0.5074460506

> <CNNaffinity>
4.2790794373

> <CNN_VS>
2.1714019775

> <CNNaffinity_variance>
0.1759694517

$$$$
[H]Oc1c([H])c([H])c2c(c1[H])C([H])([H])C([H])([H])[C@]1([H])[C@]2([H])C([H])([H])C([H])([H])[C@]2(C([H])([H])[H])[C@](O[H])(C(=O)C([H])([H])O[H])C([H])([H])C([H])([H])[C@]21[H]


 27 30  0  0  0  0  0  0  0  0999 V2000
   37.5516  -17.6916   35.9865 C   0  0  0  0  0  0  0  0  0  0  0  0
   37.9716  -19.0783   35.5561 C   0  0  0  0  0  0  0  0  0  0  0  0
   37.5202  -19.2809   34.1529 C   0  0  0  0  0  0  0  0  0  0  0  0
   36.0088  -19.0707   34.1213 C   0  0  0  0  0  0  0  0  0  0  0  0
   35.2866  -19.9408   35.0766 C   0  0  0  0  0  0  0  0  0  0  0  0
   35.8197  -19.9040   36.4973 C   0  0  0  0  0  0  0  0  0  0  0  0
   35.1838  -21.0306   37.2828 C   0  0  0  0  0  0  0  0  0  0  0  0
   33.9141  -21.5463   36.6974 C   0  0  0  0  0  0  0  0  0  0  0  0
   33.1150  -20.5273   35.9679 C   0  0  0  0  0  0  0  0  0  0  0  0
   31.7618  -20.3991   36.1005 C   0  0  0  0  0  0  0  0  0  0  0  0
   31.1168  -19.4235   35.3787 C   0  0  0  0  0  0  0  0  0  0  0  0
   29.7420  -19.3039   35.5227 O   0  0  0  0  0  0  0  0  0  0  0  0
   31.8287  -18.5937   34.5386 C   0  0  0  0  0  0  0  0  0  0  0  0
   33.1895  -18.7324   34.4135 C   0  0  0  0  0  0  0  0  0  0  0  0
   33.8484  -19.6881   35.1159 C   0  0  0  0  0  0  0  0  0  0  0  0
   37.2570  -20.1587   36.3648 C   0  0  0  0  0  0  0  0  0  0  0  0
   38.0878  -20.2892   37.5650 C   0  0  0  0  0  0  0  0  0  0  0  0
   39.4547  -20.4834   36.8726 C   0  0  0  0  0  0  0  0  0  0  0  0
   39.3864  -19.3102   35.8867 C   0  0  0  0  0  0  0  0  0  0  0  0
   39.8659  -18.2125   36.6492 O   0  0  0  0  0  0  0  0  0  0  0  0
   29.1639  -19.8527   34.8850 H   0  0  0  0  0  0  0  0  0  0  0  0
   40.5028  -18.5005   37.3281 H   0  0  0  0  0  0  0  0  0  0  0  0
   40.3323  -19.4484   34.7813 C   0  0  0  0  0  0  0  0  0  0  0  0
   40.4882  -20.5692   34.3263 O   0  0  0  0  0  0  0  0  0  0  0  0
   41.1316  -18.4004   34.1368 C   0  0  0  0  0  0  0  0  0  0  0  0
   40.5691  -17.7911   33.0581 O   0  0  0  0  0  0  0  0  0  0  0  0
   40.1768  -16.9135   33.3619 H   0  0  0  0  0  0  0  0  0  0  0  0
  2  1  1  0  0  0
  2  3  1  0  0  0
  3  4  1  0  0  0
  4  5  1  0  0  0
  5  6  1  0  0  0
  6  7  1  0  0  0
  7  8  1  0  0  0
  8  9  1  0  0  0
  9 10  2  0  0  0
 10 11  1  0  0  0
 11 12  1  0  0  0
 11 13  2  0  0  0
 13 14  1  0  0  0
 14 15  2  0  0  0
  6 16  1  0  0  0
 16 17  1  0  0  0
 17 18  1  0  0  0
 18 19  1  0  0  0
 19 20  1  0  0  0
 19 23  1  0  0  0
 23 24  2  0  0  0
 23 25  1  0  0  0
 25 26  1  0  0  0
 16  2  1  0  0  0
 19  2  1  0  0  0
 15  5  1  0  0  0
 15  9  1  0  0  0
 12 21  1  0  0  0
 20 22  1  0  0  0
 26 27  1  0  0  0
M  END
> <minimizedAffinity>
-6.12185

> <CNNscore>
0.4974739850

> <CNNaffinity>
4.7290449142

> <CNN_VS>
2.3525767326

> <CNNaffinity_variance>
0.1125413403

$$$$
[H]Oc1c([H])c([H])c2c(c1[H])C([H])([H])C([H])([H])[C@]1([H])[C@]2([H])C([H])([H])C([H])([H])[C@]2(C([H])([H])[H])[C@](O[H])(C(=O)C([H])([H])O[H])C([H])([H])C([H])([H])[C@]21[H]


 27 30  0  0  0  0  0  0  0  0999 V2000
   36.3104  -19.0683   34.8424 C   0  0  0  0  0  0  0  0  0  0  0  0
   36.6457  -19.3441   36.2902 C   0  0  0  0  0  0  0  0  0  0  0  0
   35.3819  -19.2901   37.0735 C   0  0  0  0  0  0  0  0  0  0  0  0
   34.7605  -17.9143   36.8491 C   0  0  0  0  0  0  0  0  0  0  0  0
   35.6805  -16.8050   37.1873 C   0  0  0  0  0  0  0  0  0  0  0  0
   37.0537  -16.9016   36.5479 C   0  0  0  0  0  0  0  0  0  0  0  0
   37.9621  -15.8777   37.1936 C   0  0  0  0  0  0  0  0  0  0  0  0
   37.2441  -14.7619   37.8721 C   0  0  0  0  0  0  0  0  0  0  0  0
   35.9429  -14.4005   37.2513 C   0  0  0  0  0  0  0  0  0  0  0  0
   35.5475  -13.1116   37.0337 C   0  0  0  0  0  0  0  0  0  0  0  0
   34.3223  -12.8854   36.4536 C   0  0  0  0  0  0  0  0  0  0  0  0
   33.9328  -11.5713   36.2380 O   0  0  0  0  0  0  0  0  0  0  0  0
   33.5130  -13.9445   36.1007 C   0  0  0  0  0  0  0  0  0  0  0  0
   33.9216  -15.2367   36.3247 C   0  0  0  0  0  0  0  0  0  0  0  0
   35.1269  -15.4850   36.8961 C   0  0  0  0  0  0  0  0  0  0  0  0
   37.5286  -18.2474   36.8817 C   0  0  0  0  0  0  0  0  0  0  0  0
   38.8823  -18.6586   36.4991 C   0  0  0  0  0  0  0  0  0  0  0  0
   38.8328  -20.1109   37.0222 C   0  0  0  0  0  0  0  0  0  0  0  0
   37.4978  -20.5386   36.3996 C   0  0  0  0  0  0  0  0  0  0  0  0
   37.8649  -20.9621   35.0949 O   0  0  0  0  0  0  0  0  0  0  0  0
   33.4169  -11.1155   36.9918 H   0  0  0  0  0  0  0  0  0  0  0  0
   38.7733  -21.3140   35.0763 H   0  0  0  0  0  0  0  0  0  0  0  0
   36.9325  -21.7243   37.0400 C   0  0  0  0  0  0  0  0  0  0  0  0
   36.1777  -22.4069   36.3677 O   0  0  0  0  0  0  0  0  0  0  0  0
   37.1565  -22.2095   38.4065 C   0  0  0  0  0  0  0  0  0  0  0  0
   36.8646  -21.3389   39.4105 O   0  0  0  0  0  0  0  0  0  0  0  0
   35.9552  -21.5744   39.7763 H   0  0  0  0  0  0  0  0  0  0  0  0
  2  1  1  0  0  0
  2  3  1  0  0  0
  3  4  1  0  0  0
  4  5  1  0  0  0
  5  6  1  0  0  0
  6  7  1  0  0  0
  7  8  1  0  0  0
  8  9  1  0  0  0
  9 10  2  0  0  0
 10 11  1  0  0  0
 11 12  1  0  0  0
 11 13  2  0  0  0
 13 14  1  0  0  0
 14 15  2  0  0  0
  6 16  1  0  0  0
 16 17  1  0  0  0
 17 18  1  0  0  0
 18 19  1  0  0  0
 19 20  1  0  0  0
 19 23  1  0  0  0
 23 24  2  0  0  0
 23 25  1  0  0  0
 25 26  1  0  0  0
 16  2  1  0  0  0
 19  2  1  0  0  0
 15  5  1  0  0  0
 15  9  1  0  0  0
 12 21  1  0  0  0
 20 22  1  0  0  0
 26 27  1  0  0  0
M  END
> <minimizedAffinity>
-4.92677

> <CNNscore>
0.4957344234

> <CNNaffinity>
4.7160778046

> <CNN_VS>
2.3379220963

> <CNNaffinity_variance>
0.1114182249

$$$$
[H]Oc1c([H])c([H])c2c(c1[H])C([H])([H])C([H])([H])[C@]1([H])[C@]2([H])C([H])([H])C([H])([H])[C@]2(C([H])([H])[H])[C@](O[H])(C(=O)C([H])([H])O[H])C([H])([H])C([H])([H])[C@]21[H]


 27 30  0  0  0  0  0  0  0  0999 V2000
   34.4290  -22.7163   36.6368 C   0  0  0  0  0  0  0  0  0  0  0  0
   33.9798  -21.5294   37.4578 C   0  0  0  0  0  0  0  0  0  0  0  0
   33.3370  -22.0440   38.6970 C   0  0  0  0  0  0  0  0  0  0  0  0
   32.1881  -22.9555   38.2744 C   0  0  0  0  0  0  0  0  0  0  0  0
   31.2220  -22.2847   37.3756 C   0  0  0  0  0  0  0  0  0  0  0  0
   31.8450  -21.5903   36.1783 C   0  0  0  0  0  0  0  0  0  0  0  0
   30.7930  -20.7253   35.5181 C   0  0  0  0  0  0  0  0  0  0  0  0
   29.3903  -21.1129   35.8393 C   0  0  0  0  0  0  0  0  0  0  0  0
   29.1947  -22.5656   36.0849 C   0  0  0  0  0  0  0  0  0  0  0  0
   28.1515  -23.2801   35.5689 C   0  0  0  0  0  0  0  0  0  0  0  0
   28.0616  -24.6206   35.8583 C   0  0  0  0  0  0  0  0  0  0  0  0
   26.9970  -25.3348   35.3277 O   0  0  0  0  0  0  0  0  0  0  0  0
   29.0102  -25.2259   36.6553 C   0  0  0  0  0  0  0  0  0  0  0  0
   30.0549  -24.4967   37.1686 C   0  0  0  0  0  0  0  0  0  0  0  0
   30.1649  -23.1720   36.8968 C   0  0  0  0  0  0  0  0  0  0  0  0
   32.8898  -20.7324   36.7446 C   0  0  0  0  0  0  0  0  0  0  0  0
   33.6457  -19.8308   35.8708 C   0  0  0  0  0  0  0  0  0  0  0  0
   34.6019  -19.2400   36.9301 C   0  0  0  0  0  0  0  0  0  0  0  0
   35.0700  -20.5487   37.5787 C   0  0  0  0  0  0  0  0  0  0  0  0
   36.1493  -20.9573   36.7514 O   0  0  0  0  0  0  0  0  0  0  0  0
   26.1468  -25.3784   35.8910 H   0  0  0  0  0  0  0  0  0  0  0  0
   36.5999  -20.1928   36.3491 H   0  0  0  0  0  0  0  0  0  0  0  0
   35.6596  -20.3425   38.8999 C   0  0  0  0  0  0  0  0  0  0  0  0
   35.2426  -19.3971   39.5480 O   0  0  0  0  0  0  0  0  0  0  0  0
   36.7033  -21.1350   39.5598 C   0  0  0  0  0  0  0  0  0  0  0  0
   37.0627  -22.2923   38.9414 O   0  0  0  0  0  0  0  0  0  0  0  0
   37.9115  -22.1223   38.4248 H   0  0  0  0  0  0  0  0  0  0  0  0
  2  1  1  0  0  0
  2  3  1  0  0  0
  3  4  1  0  0  0
  4  5  1  0  0  0
  5  6  1  0  0  0
  6  7  1  0  0  0
  7  8  1  0  0  0
  8  9  1  0  0  0
  9 10  2  0  0  0
 10 11  1  0  0  0
 11 12  1  0  0  0
 11 13  2  0  0  0
 13 14  1  0  0  0
 14 15  2  0  0  0
  6 16  1  0  0  0
 16 17  1  0  0  0
 17 18  1  0  0  0
 18 19  1  0  0  0
 19 20  1  0  0  0
 19 23  1  0  0  0
 23 24  2  0  0  0
 23 25  1  0  0  0
 25 26  1  0  0  0
 16  2  1  0  0  0
 19  2  1  0  0  0
 15  5  1  0  0  0
 15  9  1  0  0  0
 12 21  1  0  0  0
 20 22  1  0  0  0
 26 27  1  0  0  0
M  END
> <minimizedAffinity>
-4.04320

> <CNNscore>
0.4902766347

> <CNNaffinity>
4.0855102539

> <CNN_VS>
2.0030303001

> <CNNaffinity_variance>
0.1172278151

$$$$
[H]Oc1c([H])c([H])c2c(c1[H])C([H])([H])C([H])([H])[C@]1([H])[C@]2([H])C([H])([H])C([H])([H])[C@]2(C([H])([H])[H])[C@](O[H])(C(=O)C([H])([H])O[H])C([H])([H])C([H])([H])[C@]21[H]


 27 30  0  0  0  0  0  0  0  0999 V2000
   33.6646  -14.1056   35.9991 C   0  0  0  0  0  0  0  0  0  0  0  0
   34.5498  -13.3887   36.9926 C   0  0  0  0  0  0  0  0  0  0  0  0
   34.1458  -13.8146   38.3598 C   0  0  0  0  0  0  0  0  0  0  0  0
   32.6643  -13.4866   38.5245 C   0  0  0  0  0  0  0  0  0  0  0  0
   32.3579  -12.0618   38.2648 C   0  0  0  0  0  0  0  0  0  0  0  0
   32.9000  -11.5246   36.9527 C   0  0  0  0  0  0  0  0  0  0  0  0
   32.7615  -10.0175   36.9519 C   0  0  0  0  0  0  0  0  0  0  0  0
   31.7495   -9.4939   37.9125 C   0  0  0  0  0  0  0  0  0  0  0  0
   30.5990  -10.4043   38.1504 C   0  0  0  0  0  0  0  0  0  0  0  0
   29.3017   -9.9792   38.1912 C   0  0  0  0  0  0  0  0  0  0  0  0
   28.3106  -10.9035   38.4195 C   0  0  0  0  0  0  0  0  0  0  0  0
   26.9970  -10.4585   38.4585 O   0  0  0  0  0  0  0  0  0  0  0  0
   28.6273  -12.2329   38.6032 C   0  0  0  0  0  0  0  0  0  0  0  0
   29.9359  -12.6483   38.5601 C   0  0  0  0  0  0  0  0  0  0  0  0
   30.9316  -11.7544   38.3361 C   0  0  0  0  0  0  0  0  0  0  0  0
   34.3221  -11.8790   36.9617 C   0  0  0  0  0  0  0  0  0  0  0  0
   35.1929  -11.4270   35.8730 C   0  0  0  0  0  0  0  0  0  0  0  0
   36.5032  -12.0988   36.3391 C   0  0  0  0  0  0  0  0  0  0  0  0
   35.9626  -13.5103   36.6001 C   0  0  0  0  0  0  0  0  0  0  0  0
   36.0332  -14.1299   35.3244 O   0  0  0  0  0  0  0  0  0  0  0  0
   26.6367  -10.1694   39.3687 H   0  0  0  0  0  0  0  0  0  0  0  0
   36.7601  -13.7630   34.7892 H   0  0  0  0  0  0  0  0  0  0  0  0
   36.8438  -14.3008   37.4570 C   0  0  0  0  0  0  0  0  0  0  0  0
   37.6766  -13.6891   38.1049 O   0  0  0  0  0  0  0  0  0  0  0  0
   36.8591  -15.7561   37.6435 C   0  0  0  0  0  0  0  0  0  0  0  0
   37.2263  -16.4982   36.5639 O   0  0  0  0  0  0  0  0  0  0  0  0
   38.1947  -16.7558   36.6741 H   0  0  0  0  0  0  0  0  0  0  0  0
  2  1  1  0  0  0
  2  3  1  0  0  0
  3  4  1  0  0  0
  4  5  1  0  0  0
  5  6  1  0  0  0
  6  7  1  0  0  0
  7  8  1  0  0  0
  8  9  1  0  0  0
  9 10  2  0  0  0
 10 11  1  0  0  0
 11 12  1  0  0  0
 11 13  2  0  0  0
 13 14  1  0  0  0
 14 15  2  0  0  0
  6 16  1  0  0  0
 16 17  1  0  0  0
 17 18  1  0  0  0
 18 19  1  0  0  0
 19 20  1  0  0  0
 19 23  1  0  0  0
 23 24  2  0  0  0
 23 25  1  0  0  0
 25 26  1  0  0  0
 16  2  1  0  0  0
 19  2  1  0  0  0
 15  5  1  0  0  0
 15  9  1  0  0  0
 12 21  1  0  0  0
 20 22  1  0  0  0
 26 27  1  0  0  0
M  END
> <minimizedAffinity>
-5.28119

> <CNNscore>
0.4817169905

> <CNNaffinity>
5.4481339455

> <CNN_VS>
2.6244587898

> <CNNaffinity_variance>
0.0563760623

$$$$
[H]Oc1c([H])c([H])c2c(c1[H])C([H])([H])C([H])([H])[C@]1([H])[C@]2([H])C([H])([H])C([H])([H])[C@]2(C([H])([H])[H])[C@](O[H])(C(=O)C([H])([H])O[H])C([H])([H])C([H])([H])[C@]21[H]


 27 30  0  0  0  0  0  0  0  0999 V2000
   32.3743  -22.0001   34.3131 C   0  0  0  0  0  0  0  0  0  0  0  0
   32.0205  -22.2667   35.7582 C   0  0  0  0  0  0  0  0  0  0  0  0
   31.2049  -21.1238   36.2505 C   0  0  0  0  0  0  0  0  0  0  0  0
   32.0281  -19.8536   36.0548 C   0  0  0  0  0  0  0  0  0  0  0  0
   33.3549  -19.9213   36.7078 C   0  0  0  0  0  0  0  0  0  0  0  0
   34.1645  -21.1610   36.3738 C   0  0  0  0  0  0  0  0  0  0  0  0
   35.3493  -21.2336   37.3128 C   0  0  0  0  0  0  0  0  0  0  0  0
   35.7138  -19.9328   37.9422 C   0  0  0  0  0  0  0  0  0  0  0  0
   35.4306  -18.7415   37.0998 C   0  0  0  0  0  0  0  0  0  0  0  0
   36.3055  -17.7035   36.9497 C   0  0  0  0  0  0  0  0  0  0  0  0
   35.9455  -16.6470   36.1478 C   0  0  0  0  0  0  0  0  0  0  0  0
   36.8434  -15.5991   36.0039 O   0  0  0  0  0  0  0  0  0  0  0  0
   34.7229  -16.6417   35.5103 C   0  0  0  0  0  0  0  0  0  0  0  0
   33.8514  -17.6914   35.6691 C   0  0  0  0  0  0  0  0  0  0  0  0
   34.1844  -18.7456   36.4556 C   0  0  0  0  0  0  0  0  0  0  0  0
   33.2619  -22.2829   36.6474 C   0  0  0  0  0  0  0  0  0  0  0  0
   33.7506  -23.6589   36.5224 C   0  0  0  0  0  0  0  0  0  0  0  0
   32.4347  -24.3962   36.8540 C   0  0  0  0  0  0  0  0  0  0  0  0
   31.4948  -23.6322   35.9128 C   0  0  0  0  0  0  0  0  0  0  0  0
   31.6349  -24.3209   34.6790 O   0  0  0  0  0  0  0  0  0  0  0  0
   36.7677  -14.8337   36.6750 H   0  0  0  0  0  0  0  0  0  0  0  0
   31.8497  -25.2611   34.8175 H   0  0  0  0  0  0  0  0  0  0  0  0
   30.0877  -23.7851   36.2769 C   0  0  0  0  0  0  0  0  0  0  0  0
   29.8330  -23.8770   37.4661 O   0  0  0  0  0  0  0  0  0  0  0  0
   28.9229  -23.8436   35.3866 C   0  0  0  0  0  0  0  0  0  0  0  0
   28.2117  -22.6920   35.2484 O   0  0  0  0  0  0  0  0  0  0  0  0
   28.4946  -22.2490   34.3881 H   0  0  0  0  0  0  0  0  0  0  0  0
  2  1  1  0  0  0
  2  3  1  0  0  0
  3  4  1  0  0  0
  4  5  1  0  0  0
  5  6  1  0  0  0
  6  7  1  0  0  0
  7  8  1  0  0  0
  8  9  1  0  0  0
  9 10  2  0  0  0
 10 11  1  0  0  0
 11 12  1  0  0  0
 11 13  2  0  0  0
 13 14  1  0  0  0
 14 15  2  0  0  0
  6 16  1  0  0  0
 16 17  1  0  0  0
 17 18  1  0  0  0
 18 19  1  0  0  0
 19 20  1  0  0  0
 19 23  1  0  0  0
 23 24  2  0  0  0
 23 25  1  0  0  0
 25 26  1  0  0  0
 16  2  1  0  0  0
 19  2  1  0  0  0
 15  5  1  0  0  0
 15  9  1  0  0  0
 12 21  1  0  0  0
 20 22  1  0  0  0
 26 27  1  0  0  0
M  END
> <minimizedAffinity>
-5.38955

> <CNNscore>
0.4761653244

> <CNNaffinity>
4.3145470619

> <CNN_VS>
2.0544376373

> <CNNaffinity_variance>
0.0852582753

$$$$
[H]Oc1c([H])c([H])c2c(c1[H])C([H])([H])C([H])([H])[C@]1([H])[C@]2([H])C([H])([H])C([H])([H])[C@]2(C([H])([H])[H])[C@](O[H])(C(=O)C([H])([H])O[H])C([H])([H])C([H])([H])[C@]21[H]


 27 30  0  0  0  0  0  0  0  0999 V2000
   36.0065  -17.8523   36.8478 C   0  0  0  0  0  0  0  0  0  0  0  0
   35.7931  -19.1301   36.0691 C   0  0  0  0  0  0  0  0  0  0  0  0
   36.4410  -20.2396   36.8194 C   0  0  0  0  0  0  0  0  0  0  0  0
   37.9134  -19.8780   36.9943 C   0  0  0  0  0  0  0  0  0  0  0  0
   38.5929  -19.5941   35.7101 C   0  0  0  0  0  0  0  0  0  0  0  0
   37.8795  -18.5907   34.8224 C   0  0  0  0  0  0  0  0  0  0  0  0
   38.5225  -18.6124   33.4525 C   0  0  0  0  0  0  0  0  0  0  0  0
   39.9042  -19.1704   33.4321 C   0  0  0  0  0  0  0  0  0  0  0  0
   40.6801  -18.9364   34.6781 C   0  0  0  0  0  0  0  0  0  0  0  0
   41.9839  -18.5299   34.6849 C   0  0  0  0  0  0  0  0  0  0  0  0
   42.6114  -18.3435   35.8934 C   0  0  0  0  0  0  0  0  0  0  0  0
   43.9359  -17.9303   35.8863 O   0  0  0  0  0  0  0  0  0  0  0  0
   41.9314  -18.5647   37.0724 C   0  0  0  0  0  0  0  0  0  0  0  0
   40.6202  -18.9736   37.0526 C   0  0  0  0  0  0  0  0  0  0  0  0
   39.9795  -19.1643   35.8719 C   0  0  0  0  0  0  0  0  0  0  0  0
   36.5060  -19.0918   34.7192 C   0  0  0  0  0  0  0  0  0  0  0  0
   35.5450  -18.4104   33.8474 C   0  0  0  0  0  0  0  0  0  0  0  0
   34.3071  -19.2824   34.1519 C   0  0  0  0  0  0  0  0  0  0  0  0
   34.3794  -19.2646   35.6840 C   0  0  0  0  0  0  0  0  0  0  0  0
   33.6932  -18.0709   36.0311 O   0  0  0  0  0  0  0  0  0  0  0  0
   44.6459  -18.6637   35.8772 H   0  0  0  0  0  0  0  0  0  0  0  0
   33.0074  -17.8498   35.3751 H   0  0  0  0  0  0  0  0  0  0  0  0
   33.6043  -20.3415   36.2964 C   0  0  0  0  0  0  0  0  0  0  0  0
   33.3835  -20.2503   37.4925 O   0  0  0  0  0  0  0  0  0  0  0  0
   33.0479  -21.5366   35.6522 C   0  0  0  0  0  0  0  0  0  0  0  0
   33.6912  -22.7095   35.9002 O   0  0  0  0  0  0  0  0  0  0  0  0
   33.1816  -23.2021   36.6171 H   0  0  0  0  0  0  0  0  0  0  0  0
  2  1  1  0  0  0
  2  3  1  0  0  0
  3  4  1  0  0  0
  4  5  1  0  0  0
  5  6  1  0  0  0
  6  7  1  0  0  0
  7  8  1  0  0  0
  8  9  1  0  0  0
  9 10  2  0  0  0
 10 11  1  0  0  0
 11 12  1  0  0  0
 11 13  2  0  0  0
 13 14  1  0  0  0
 14 15  2  0  0  0
  6 16  1  0  0  0
 16 17  1  0  0  0
 17 18  1  0  0  0
 18 19  1  0  0  0
 19 20  1  0  0  0
 19 23  1  0  0  0
 23 24  2  0  0  0
 23 25  1  0  0  0
 25 26  1  0  0  0
 16  2  1  0  0  0
 19  2  1  0  0  0
 15  5  1  0  0  0
 15  9  1  0  0  0
 12 21  1  0  0  0
 20 22  1  0  0  0
 26 27  1  0  0  0
M  END
> <minimizedAffinity>
-6.59795

> <CNNscore>
0.4665884972

> <CNNaffinity>
4.6801424026

> <CNN_VS>
2.1837005615

> <CNNaffinity_variance>
0.0692110136

$$$$
[H]Oc1c([H])c([H])c2c(c1[H])C([H])([H])C([H])([H])[C@]1([H])[C@]2([H])C([H])([H])[C@]2(C([H])([H])[H])[C@@](C#Cc3c([H])c([H])c([H])c([H])c3[H])(O[H])C([H])([H])C([H])([H])[C@]21[H]


 29 33  0  0  0  0  0  0  0  0999 V2000
   35.0566  -20.2875   38.5775 C   0  0  0  0  0  0  0  0  0  0  0  0
   35.8759  -21.4967   38.2480 C   0  0  0  0  0  0  0  0  0  0  0  0
   35.1571  -22.3306   37.2656 C   0  0  0  0  0  0  0  0  0  0  0  0
   34.2528  -23.1748   38.1016 C   0  0  0  0  0  0  0  0  0  0  0  0
   34.5211  -22.7322   39.5627 C   0  0  0  0  0  0  0  0  0  0  0  0
   34.0205  -23.8242   40.4118 C   0  0  0  0  0  0  0  0  0  0  0  0
   32.5155  -23.8615   40.2862 C   0  0  0  0  0  0  0  0  0  0  0  0
   32.0213  -23.3435   39.0036 C   0  0  0  0  0  0  0  0  0  0  0  0
   30.6358  -23.1998   38.8991 C   0  0  0  0  0  0  0  0  0  0  0  0
   30.0309  -22.7275   37.7577 C   0  0  0  0  0  0  0  0  0  0  0  0
   28.6301  -22.5982   37.6949 O   0  0  0  0  0  0  0  0  0  0  0  0
   30.8285  -22.3893   36.6922 C   0  0  0  0  0  0  0  0  0  0  0  0
   32.1893  -22.5318   36.7986 C   0  0  0  0  0  0  0  0  0  0  0  0
   32.8239  -23.0006   37.9244 C   0  0  0  0  0  0  0  0  0  0  0  0
   35.9321  -22.4877   39.4336 C   0  0  0  0  0  0  0  0  0  0  0  0
   36.7288  -21.7552   40.3881 C   0  0  0  0  0  0  0  0  0  0  0  0
   37.8698  -21.2660   39.4778 C   0  0  0  0  0  0  0  0  0  0  0  0
   37.2807  -21.1871   38.0754 C   0  0  0  0  0  0  0  0  0  0  0  0
   37.4197  -19.8452   37.6735 O   0  0  0  0  0  0  0  0  0  0  0  0
   28.1298  -23.4047   37.3587 H   0  0  0  0  0  0  0  0  0  0  0  0
   38.3697  -19.6200   37.8543 H   0  0  0  0  0  0  0  0  0  0  0  0
   37.9695  -22.0861   37.1573 C   0  0  0  0  0  0  0  0  0  0  0  0
   38.5437  -22.8292   36.3849 C   0  0  0  0  0  0  0  0  0  0  0  0
   39.2428  -23.7066   35.4859 C   0  0  0  0  0  0  0  0  0  0  0  0
   38.9293  -23.8219   34.1483 C   0  0  0  0  0  0  0  0  0  0  0  0
   39.5984  -24.6628   33.2843 C   0  0  0  0  0  0  0  0  0  0  0  0
   40.6405  -25.4425   33.7532 C   0  0  0  0  0  0  0  0  0  0  0  0
   40.9759  -25.3480   35.0855 C   0  0  0  0  0  0  0  0  0  0  0  0
   40.3022  -24.5112   35.9218 C   0  0  0  0  0  0  0  0  0  0  0  0
  2  1  1  0  0  0
  2  3  1  0  0  0
  3  4  1  0  0  0
  4  5  1  0  0  0
  5  6  1  0  0  0
  6  7  1  0  0  0
  7  8  1  0  0  0
  8  9  2  0  0  0
  9 10  1  0  0  0
 10 11  1  0  0  0
 10 12  2  0  0  0
 12 13  1  0  0  0
 13 14  2  0  0  0
  5 15  1  0  0  0
 15 16  1  0  0  0
 16 17  1  0  0  0
 17 18  1  0  0  0
 18 19  1  0  0  0
 18 22  1  0  0  0
 22 23  3  0  0  0
 23 24  1  0  0  0
 24 25  2  0  0  0
 25 26  1  0  0  0
 26 27  2  0  0  0
 27 28  1  0  0  0
 28 29  2  0  0  0
 15  2  1  0  0  0
 29 24  1  0  0  0
 18  2  1  0  0  0
 14  4  1  0  0  0
 14  8  1  0  0  0
 11 20  1  0  0  0
 19 21  1  0  0  0
M  END
> <minimizedAffinity>
-2.95198

> <CNNscore>
0.6673362851

> <CNNaffinity>
4.9639196396

> <CNN_VS>
3.3126037121

> <CNNaffinity_variance>
0.4748705924

$$$$
[H]Oc1c([H])c([H])c2c(c1[H])C([H])([H])C([H])([H])[C@]1([H])[C@]2([H])C([H])([H])[C@]2(C([H])([H])[H])[C@@](C#Cc3c([H])c([H])c([H])c([H])c3[H])(O[H])C([H])([H])C([H])([H])[C@]21[H]


 29 33  0  0  0  0  0  0  0  0999 V2000
   35.0677  -20.8191   37.4312 C   0  0  0  0  0  0  0  0  0  0  0  0
   36.1665  -21.6354   38.0381 C   0  0  0  0  0  0  0  0  0  0  0  0
   36.0116  -23.0483   37.6425 C   0  0  0  0  0  0  0  0  0  0  0  0
   35.0520  -23.6006   38.6444 C   0  0  0  0  0  0  0  0  0  0  0  0
   34.7014  -22.4078   39.5702 C   0  0  0  0  0  0  0  0  0  0  0  0
   34.1549  -23.0011   40.8004 C   0  0  0  0  0  0  0  0  0  0  0  0
   32.8263  -23.6358   40.4630 C   0  0  0  0  0  0  0  0  0  0  0  0
   32.7227  -24.0702   39.0636 C   0  0  0  0  0  0  0  0  0  0  0  0
   31.4615  -24.5102   38.6552 C   0  0  0  0  0  0  0  0  0  0  0  0
   31.2157  -24.9473   37.3745 C   0  0  0  0  0  0  0  0  0  0  0  0
   29.9286  -25.3826   37.0047 O   0  0  0  0  0  0  0  0  0  0  0  0
   32.2550  -24.9455   36.4769 C   0  0  0  0  0  0  0  0  0  0  0  0
   33.4927  -24.5124   36.8818 C   0  0  0  0  0  0  0  0  0  0  0  0
   33.7705  -24.0699   38.1533 C   0  0  0  0  0  0  0  0  0  0  0  0
   35.9933  -21.7766   39.5682 C   0  0  0  0  0  0  0  0  0  0  0  0
   36.2489  -20.4288   40.0160 C   0  0  0  0  0  0  0  0  0  0  0  0
   37.5197  -20.1061   39.2093 C   0  0  0  0  0  0  0  0  0  0  0  0
   37.4553  -20.9780   37.9621 C   0  0  0  0  0  0  0  0  0  0  0  0
   37.4658  -20.0902   36.8697 O   0  0  0  0  0  0  0  0  0  0  0  0
   29.7425  -26.3633   37.1366 H   0  0  0  0  0  0  0  0  0  0  0  0
   38.2302  -19.4803   37.0417 H   0  0  0  0  0  0  0  0  0  0  0  0
   38.5809  -21.9025   37.9003 C   0  0  0  0  0  0  0  0  0  0  0  0
   39.5216  -22.6720   37.8579 C   0  0  0  0  0  0  0  0  0  0  0  0
   40.6179  -23.6004   37.8039 C   0  0  0  0  0  0  0  0  0  0  0  0
   41.8899  -23.2917   38.2368 C   0  0  0  0  0  0  0  0  0  0  0  0
   42.9428  -24.1804   38.1860 C   0  0  0  0  0  0  0  0  0  0  0  0
   42.7444  -25.4528   37.6805 C   0  0  0  0  0  0  0  0  0  0  0  0
   41.4837  -25.7893   37.2405 C   0  0  0  0  0  0  0  0  0  0  0  0
   40.4576  -24.8964   37.2996 C   0  0  0  0  0  0  0  0  0  0  0  0
  2  1  1  0  0  0
  2  3  1  0  0  0
  3  4  1  0  0  0
  4  5  1  0  0  0
  5  6  1  0  0  0
  6  7  1  0  0  0
  7  8  1  0  0  0
  8  9  2  0  0  0
  9 10  1  0  0  0
 10 11  1  0  0  0
 10 12  2  0  0  0
 12 13  1  0  0  0
 13 14  2  0  0  0
  5 15  1  0  0  0
 15 16  1  0  0  0
 16 17  1  0  0  0
 17 18  1  0  0  0
 18 19  1  0  0  0
 18 22  1  0  0  0
 22 23  3  0  0  0
 23 24  1  0  0  0
 24 25  2  0  0  0
 25 26  1  0  0  0
 26 27  2  0  0  0
 27 28  1  0  0  0
 28 29  2  0  0  0
 15  2  1  0  0  0
 29 24  1  0  0  0
 18  2  1  0  0  0
 14  4  1  0  0  0
 14  8  1  0  0  0
 11 20  1  0  0  0
 19 21  1  0  0  0
M  END
> <minimizedAffinity>
-0.51387

> <CNNscore>
0.6112505198

> <CNNaffinity>
4.8171796799

> <CNN_VS>
2.9445035458

> <CNNaffinity_variance>
0.5958048105

$$$$
[H]Oc1c([H])c([H])c2c(c1[H])C([H])([H])C([H])([H])[C@]1([H])[C@]2([H])C([H])([H])[C@]2(C([H])([H])[H])[C@@](C#Cc3c([H])c([H])c([H])c([H])c3[H])(O[H])C([H])([H])C([H])([H])[C@]21[H]


 29 33  0  0  0  0  0  0  0  0999 V2000
   37.9119  -17.7398   34.8268 C   0  0  0  0  0  0  0  0  0  0  0  0
   38.4147  -19.1377   35.0143 C   0  0  0  0  0  0  0  0  0  0  0  0
   37.4409  -20.0946   34.4549 C   0  0  0  0  0  0  0  0  0  0  0  0
   36.4611  -20.3017   35.5625 C   0  0  0  0  0  0  0  0  0  0  0  0
   36.9593  -19.3974   36.7186 C   0  0  0  0  0  0  0  0  0  0  0  0
   36.3196  -19.9151   37.9380 C   0  0  0  0  0  0  0  0  0  0  0  0
   34.8372  -19.6412   37.8403 C   0  0  0  0  0  0  0  0  0  0  0  0
   34.3443  -19.5684   36.4585 C   0  0  0  0  0  0  0  0  0  0  0  0
   33.0191  -19.1538   36.3065 C   0  0  0  0  0  0  0  0  0  0  0  0
   32.4225  -19.0398   35.0725 C   0  0  0  0  0  0  0  0  0  0  0  0
   31.0834  -18.6179   34.9646 O   0  0  0  0  0  0  0  0  0  0  0  0
   33.1669  -19.3473   33.9603 C   0  0  0  0  0  0  0  0  0  0  0  0
   34.4686  -19.7543   34.1135 C   0  0  0  0  0  0  0  0  0  0  0  0
   35.0933  -19.8783   35.3318 C   0  0  0  0  0  0  0  0  0  0  0  0
   38.3704  -19.5651   36.4997 C   0  0  0  0  0  0  0  0  0  0  0  0
   39.3954  -18.7276   37.0745 C   0  0  0  0  0  0  0  0  0  0  0  0
   40.5211  -18.9213   36.0425 C   0  0  0  0  0  0  0  0  0  0  0  0
   39.8296  -19.2632   34.7292 C   0  0  0  0  0  0  0  0  0  0  0  0
   40.2155  -18.2621   33.8179 O   0  0  0  0  0  0  0  0  0  0  0  0
   30.3904  -19.3482   34.9847 H   0  0  0  0  0  0  0  0  0  0  0  0
   41.2046  -18.2158   33.8908 H   0  0  0  0  0  0  0  0  0  0  0  0
   40.2155  -20.5860   34.2531 C   0  0  0  0  0  0  0  0  0  0  0  0
   40.5288  -21.6926   33.8584 C   0  0  0  0  0  0  0  0  0  0  0  0
   40.9003  -22.9922   33.3686 C   0  0  0  0  0  0  0  0  0  0  0  0
   41.9826  -23.2057   32.5417 C   0  0  0  0  0  0  0  0  0  0  0  0
   42.3407  -24.4511   32.0707 C   0  0  0  0  0  0  0  0  0  0  0  0
   41.5964  -25.5612   32.4280 C   0  0  0  0  0  0  0  0  0  0  0  0
   40.5094  -25.3780   33.2533 C   0  0  0  0  0  0  0  0  0  0  0  0
   40.1730  -24.1394   33.7072 C   0  0  0  0  0  0  0  0  0  0  0  0
  2  1  1  0  0  0
  2  3  1  0  0  0
  3  4  1  0  0  0
  4  5  1  0  0  0
  5  6  1  0  0  0
  6  7  1  0  0  0
  7  8  1  0  0  0
  8  9  2  0  0  0
  9 10  1  0  0  0
 10 11  1  0  0  0
 10 12  2  0  0  0
 12 13  1  0  0  0
 13 14  2  0  0  0
  5 15  1  0  0  0
 15 16  1  0  0  0
 16 17  1  0  0  0
 17 18  1  0  0  0
 18 19  1  0  0  0
 18 22  1  0  0  0
 22 23  3  0  0  0
 23 24  1  0  0  0
 24 25  2  0  0  0
 25 26  1  0  0  0
 26 27  2  0  0  0
 27 28  1  0  0  0
 28 29  2  0  0  0
 15  2  1  0  0  0
 29 24  1  0  0  0
 18  2  1  0  0  0
 14  4  1  0  0  0
 14  8  1  0  0  0
 11 20  1  0  0  0
 19 21  1  0  0  0
M  END
> <minimizedAffinity>
-4.37125

> <CNNscore>
0.5766482949

> <CNNaffinity>
5.0934596062

> <CNN_VS>
2.9371347427

> <CNNaffinity_variance>
0.0540611558

$$$$
[H]Oc1c([H])c([H])c2c(c1[H])C([H])([H])C([H])([H])[C@]1([H])[C@]2([H])C([H])([H])[C@]2(C([H])([H])[H])[C@@](C#Cc3c([H])c([H])c([H])c([H])c3[H])(O[H])C([H])([H])C([H])([H])[C@]21[H]


 29 33  0  0  0  0  0  0  0  0999 V2000
   38.7136  -19.4976   34.8789 C   0  0  0  0  0  0  0  0  0  0  0  0
   39.9023  -20.3951   34.7263 C   0  0  0  0  0  0  0  0  0  0  0  0
   39.5614  -21.7535   35.1907 C   0  0  0  0  0  0  0  0  0  0  0  0
   39.7945  -21.7002   36.6646 C   0  0  0  0  0  0  0  0  0  0  0  0
   40.2569  -20.2485   36.9496 C   0  0  0  0  0  0  0  0  0  0  0  0
   40.9246  -20.2893   38.2598 C   0  0  0  0  0  0  0  0  0  0  0  0
   39.8771  -20.5777   39.3094 C   0  0  0  0  0  0  0  0  0  0  0  0
   38.7275  -21.3353   38.7975 C   0  0  0  0  0  0  0  0  0  0  0  0
   37.6558  -21.4849   39.6809 C   0  0  0  0  0  0  0  0  0  0  0  0
   36.5133  -22.1705   39.3395 C   0  0  0  0  0  0  0  0  0  0  0  0
   35.4562  -22.2974   40.2611 O   0  0  0  0  0  0  0  0  0  0  0  0
   36.4372  -22.7216   38.0840 C   0  0  0  0  0  0  0  0  0  0  0  0
   37.4921  -22.5725   37.2189 C   0  0  0  0  0  0  0  0  0  0  0  0
   38.6465  -21.8938   37.5295 C   0  0  0  0  0  0  0  0  0  0  0  0
   41.0136  -20.0473   35.7437 C   0  0  0  0  0  0  0  0  0  0  0  0
   41.4603  -18.7634   35.2596 C   0  0  0  0  0  0  0  0  0  0  0  0
   41.5822  -19.0628   33.7546 C   0  0  0  0  0  0  0  0  0  0  0  0
   40.5974  -20.1898   33.4718 C   0  0  0  0  0  0  0  0  0  0  0  0
   39.6980  -19.6850   32.5139 O   0  0  0  0  0  0  0  0  0  0  0  0
   35.4932  -23.1041   40.8627 H   0  0  0  0  0  0  0  0  0  0  0  0
   40.2716  -19.3013   31.8000 H   0  0  0  0  0  0  0  0  0  0  0  0
   41.2787  -21.3807   32.9786 C   0  0  0  0  0  0  0  0  0  0  0  0
   41.8466  -22.3777   32.5760 C   0  0  0  0  0  0  0  0  0  0  0  0
   42.4982  -23.5619   32.0862 C   0  0  0  0  0  0  0  0  0  0  0  0
   41.8135  -24.6379   31.5628 C   0  0  0  0  0  0  0  0  0  0  0  0
   42.4363  -25.7747   31.0925 C   0  0  0  0  0  0  0  0  0  0  0  0
   43.8158  -25.8700   31.1347 C   0  0  0  0  0  0  0  0  0  0  0  0
   44.5261  -24.8099   31.6524 C   0  0  0  0  0  0  0  0  0  0  0  0
   43.8914  -23.6965   32.1116 C   0  0  0  0  0  0  0  0  0  0  0  0
  2  1  1  0  0  0
  2  3  1  0  0  0
  3  4  1  0  0  0
  4  5  1  0  0  0
  5  6  1  0  0  0
  6  7  1  0  0  0
  7  8  1  0  0  0
  8  9  2  0  0  0
  9 10  1  0  0  0
 10 11  1  0  0  0
 10 12  2  0  0  0
 12 13  1  0  0  0
 13 14  2  0  0  0
  5 15  1  0  0  0
 15 16  1  0  0  0
 16 17  1  0  0  0
 17 18  1  0  0  0
 18 19  1  0  0  0
 18 22  1  0  0  0
 22 23  3  0  0  0
 23 24  1  0  0  0
 24 25  2  0  0  0
 25 26  1  0  0  0
 26 27  2  0  0  0
 27 28  1  0  0  0
 28 29  2  0  0  0
 15  2  1  0  0  0
 29 24  1  0  0  0
 18  2  1  0  0  0
 14  4  1  0  0  0
 14  8  1  0  0  0
 11 20  1  0  0  0
 19 21  1  0  0  0
M  END
> <minimizedAffinity>
-4.45209

> <CNNscore>
0.5532358885

> <CNNaffinity>
5.0203576088

> <CNN_VS>
2.7774419785

> <CNNaffinity_variance>
0.3914765716

$$$$
[H]Oc1c([H])c([H])c2c(c1[H])C([H])([H])C([H])([H])[C@]1([H])[C@]2([H])C([H])([H])[C@]2(C([H])([H])[H])[C@@](C#Cc3c([H])c([H])c([H])c([H])c3[H])(O[H])C([H])([H])C([H])([H])[C@]21[H]


 29 33  0  0  0  0  0  0  0  0999 V2000
   32.7483  -22.2856   35.0113 C   0  0  0  0  0  0  0  0  0  0  0  0
   32.2486  -22.6515   36.3746 C   0  0  0  0  0  0  0  0  0  0  0  0
   32.3952  -21.4981   37.2829 C   0  0  0  0  0  0  0  0  0  0  0  0
   33.8016  -21.6017   37.7738 C   0  0  0  0  0  0  0  0  0  0  0  0
   34.3862  -22.8518   37.0681 C   0  0  0  0  0  0  0  0  0  0  0  0
   35.5641  -23.2446   37.8569 C   0  0  0  0  0  0  0  0  0  0  0  0
   36.6170  -22.1744   37.6890 C   0  0  0  0  0  0  0  0  0  0  0  0
   36.0617  -20.8466   37.3954 C   0  0  0  0  0  0  0  0  0  0  0  0
   36.9917  -19.8575   37.0668 C   0  0  0  0  0  0  0  0  0  0  0  0
   36.6175  -18.5679   36.7692 C   0  0  0  0  0  0  0  0  0  0  0  0
   37.5884  -17.6015   36.4430 O   0  0  0  0  0  0  0  0  0  0  0  0
   35.2805  -18.2560   36.7998 C   0  0  0  0  0  0  0  0  0  0  0  0
   34.3697  -19.2304   37.1230 C   0  0  0  0  0  0  0  0  0  0  0  0
   34.7113  -20.5273   37.4252 C   0  0  0  0  0  0  0  0  0  0  0  0
   33.1929  -23.6539   37.0778 C   0  0  0  0  0  0  0  0  0  0  0  0
   32.9973  -24.8438   36.2851 C   0  0  0  0  0  0  0  0  0  0  0  0
   31.4610  -24.8621   36.1890 C   0  0  0  0  0  0  0  0  0  0  0  0
   31.0163  -23.4121   36.3301 C   0  0  0  0  0  0  0  0  0  0  0  0
   30.3180  -23.1059   35.1469 O   0  0  0  0  0  0  0  0  0  0  0  0
   37.9629  -17.0774   37.2170 H   0  0  0  0  0  0  0  0  0  0  0  0
   29.6637  -23.8444   35.0363 H   0  0  0  0  0  0  0  0  0  0  0  0
   30.1714  -23.2263   37.5036 C   0  0  0  0  0  0  0  0  0  0  0  0
   29.4743  -23.0695   38.4875 C   0  0  0  0  0  0  0  0  0  0  0  0
   28.6402  -22.8640   39.6403 C   0  0  0  0  0  0  0  0  0  0  0  0
   28.3276  -23.8664   40.5336 C   0  0  0  0  0  0  0  0  0  0  0  0
   27.5279  -23.6716   41.6398 C   0  0  0  0  0  0  0  0  0  0  0  0
   26.9978  -22.4191   41.8927 C   0  0  0  0  0  0  0  0  0  0  0  0
   27.2933  -21.3982   41.0170 C   0  0  0  0  0  0  0  0  0  0  0  0
   28.0852  -21.6120   39.9305 C   0  0  0  0  0  0  0  0  0  0  0  0
  2  1  1  0  0  0
  2  3  1  0  0  0
  3  4  1  0  0  0
  4  5  1  0  0  0
  5  6  1  0  0  0
  6  7  1  0  0  0
  7  8  1  0  0  0
  8  9  2  0  0  0
  9 10  1  0  0  0
 10 11  1  0  0  0
 10 12  2  0  0  0
 12 13  1  0  0  0
 13 14  2  0  0  0
  5 15  1  0  0  0
 15 16  1  0  0  0
 16 17  1  0  0  0
 17 18  1  0  0  0
 18 19  1  0  0  0
 18 22  1  0  0  0
 22 23  3  0  0  0
 23 24  1  0  0  0
 24 25  2  0  0  0
 25 26  1  0  0  0
 26 27  2  0  0  0
 27 28  1  0  0  0
 28 29  2  0  0  0
 15  2  1  0  0  0
 29 24  1  0  0  0
 18  2  1  0  0  0
 14  4  1  0  0  0
 14  8  1  0  0  0
 11 20  1  0  0  0
 19 21  1  0  0  0
M  END
> <minimizedAffinity>
-3.00766

> <CNNscore>
0.5441357493

> <CNNaffinity>
4.8698916435

> <CNN_VS>
2.6498820782

> <CNNaffinity_variance>
0.4151089191

$$$$
[H]Oc1c([H])c([H])c2c(c1[H])C([H])([H])C([H])([H])[C@]1([H])[C@]2([H])C([H])([H])[C@]2(C([H])([H])[H])[C@@](C#Cc3c([H])c([H])c([H])c([H])c3[H])(O[H])C([H])([H])C([H])([H])[C@]21[H]


 29 33  0  0  0  0  0  0  0  0999 V2000
   34.9033  -20.2293   40.1741 C   0  0  0  0  0  0  0  0  0  0  0  0
   35.9068  -21.1866   39.6096 C   0  0  0  0  0  0  0  0  0  0  0  0
   36.5775  -20.5741   38.4468 C   0  0  0  0  0  0  0  0  0  0  0  0
   35.6603  -20.8670   37.3055 C   0  0  0  0  0  0  0  0  0  0  0  0
   34.4737  -21.6457   37.9285 C   0  0  0  0  0  0  0  0  0  0  0  0
   33.8141  -22.3359   36.8093 C   0  0  0  0  0  0  0  0  0  0  0  0
   33.1734  -21.2898   35.9276 C   0  0  0  0  0  0  0  0  0  0  0  0
   33.8444  -19.9843   35.9846 C   0  0  0  0  0  0  0  0  0  0  0  0
   33.1981  -18.9389   35.3208 C   0  0  0  0  0  0  0  0  0  0  0  0
   33.7094  -17.6625   35.2885 C   0  0  0  0  0  0  0  0  0  0  0  0
   33.0249  -16.6377   34.6073 O   0  0  0  0  0  0  0  0  0  0  0  0
   34.8966  -17.4218   35.9354 C   0  0  0  0  0  0  0  0  0  0  0  0
   35.5286  -18.4514   36.5865 C   0  0  0  0  0  0  0  0  0  0  0  0
   35.0441  -19.7369   36.6372 C   0  0  0  0  0  0  0  0  0  0  0  0
   35.2220  -22.3835   38.9099 C   0  0  0  0  0  0  0  0  0  0  0  0
   34.6403  -23.0822   40.0306 C   0  0  0  0  0  0  0  0  0  0  0  0
   35.8315  -23.0805   41.0056 C   0  0  0  0  0  0  0  0  0  0  0  0
   36.6703  -21.8634   40.6381 C   0  0  0  0  0  0  0  0  0  0  0  0
   36.7142  -21.0617   41.7943 O   0  0  0  0  0  0  0  0  0  0  0  0
   33.2656  -16.5193   33.6368 H   0  0  0  0  0  0  0  0  0  0  0  0
   36.9813  -21.6788   42.5249 H   0  0  0  0  0  0  0  0  0  0  0  0
   38.0106  -22.2492   40.2135 C   0  0  0  0  0  0  0  0  0  0  0  0
   39.1299  -22.5751   39.8677 C   0  0  0  0  0  0  0  0  0  0  0  0
   40.4434  -22.9754   39.4417 C   0  0  0  0  0  0  0  0  0  0  0  0
   41.0752  -24.1083   39.9087 C   0  0  0  0  0  0  0  0  0  0  0  0
   42.3348  -24.4941   39.5016 C   0  0  0  0  0  0  0  0  0  0  0  0
   43.0244  -23.7268   38.5799 C   0  0  0  0  0  0  0  0  0  0  0  0
   42.4177  -22.5892   38.0960 C   0  0  0  0  0  0  0  0  0  0  0  0
   41.1730  -22.2261   38.5112 C   0  0  0  0  0  0  0  0  0  0  0  0
  2  1  1  0  0  0
  2  3  1  0  0  0
  3  4  1  0  0  0
  4  5  1  0  0  0
  5  6  1  0  0  0
  6  7  1  0  0  0
  7  8  1  0  0  0
  8  9  2  0  0  0
  9 10  1  0  0  0
 10 11  1  0  0  0
 10 12  2  0  0  0
 12 13  1  0  0  0
 13 14  2  0  0  0
  5 15  1  0  0  0
 15 16  1  0  0  0
 16 17  1  0  0  0
 17 18  1  0  0  0
 18 19  1  0  0  0
 18 22  1  0  0  0
 22 23  3  0  0  0
 23 24  1  0  0  0
 24 25  2  0  0  0
 25 26  1  0  0  0
 26 27  2  0  0  0
 27 28  1  0  0  0
 28 29  2  0  0  0
 15  2  1  0  0  0
 29 24  1  0  0  0
 18  2  1  0  0  0
 14  4  1  0  0  0
 14  8  1  0  0  0
 11 20  1  0  0  0
 19 21  1  0  0  0
M  END
> <minimizedAffinity>
-4.13164

> <CNNscore>
0.5297287703

> <CNNaffinity>
4.6982388496

> <CNN_VS>
2.4887921810

> <CNNaffinity_variance>
0.0180159770

$$$$
[H]Oc1c([H])c([H])c2c(c1[H])C([H])([H])C([H])([H])[C@]1([H])[C@]2([H])C([H])([H])[C@]2(C([H])([H])[H])[C@@](C#Cc3c([H])c([H])c([H])c([H])c3[H])(O[H])C([H])([H])C([H])([H])[C@]21[H]


 29 33  0  0  0  0  0  0  0  0999 V2000
   37.3274  -20.9239   39.1613 C   0  0  0  0  0  0  0  0  0  0  0  0
   36.3436  -21.0847   38.0440 C   0  0  0  0  0  0  0  0  0  0  0  0
   36.3058  -22.4959   37.6153 C   0  0  0  0  0  0  0  0  0  0  0  0
   37.4293  -22.6066   36.6380 C   0  0  0  0  0  0  0  0  0  0  0  0
   38.0643  -21.1934   36.5888 C   0  0  0  0  0  0  0  0  0  0  0  0
   38.8363  -21.1431   35.3376 C   0  0  0  0  0  0  0  0  0  0  0  0
   40.0050  -22.0909   35.4711 C   0  0  0  0  0  0  0  0  0  0  0  0
   39.7545  -23.2037   36.3964 C   0  0  0  0  0  0  0  0  0  0  0  0
   40.8549  -24.0143   36.6848 C   0  0  0  0  0  0  0  0  0  0  0  0
   40.7695  -25.0934   37.5334 C   0  0  0  0  0  0  0  0  0  0  0  0
   41.9042  -25.8845   37.7967 O   0  0  0  0  0  0  0  0  0  0  0  0
   39.5546  -25.3717   38.1100 C   0  0  0  0  0  0  0  0  0  0  0  0
   38.4757  -24.5731   37.8243 C   0  0  0  0  0  0  0  0  0  0  0  0
   38.5283  -23.4884   36.9813 C   0  0  0  0  0  0  0  0  0  0  0  0
   36.8531  -20.4330   36.7376 C   0  0  0  0  0  0  0  0  0  0  0  0
   36.8007  -19.0302   37.0720 C   0  0  0  0  0  0  0  0  0  0  0  0
   35.4041  -18.9516   37.7147 C   0  0  0  0  0  0  0  0  0  0  0  0
   35.1202  -20.3418   38.2684 C   0  0  0  0  0  0  0  0  0  0  0  0
   34.9206  -20.1728   39.6516 O   0  0  0  0  0  0  0  0  0  0  0  0
   42.0476  -26.6657   37.1778 H   0  0  0  0  0  0  0  0  0  0  0  0
   34.2600  -19.4354   39.7276 H   0  0  0  0  0  0  0  0  0  0  0  0
   33.9495  -20.9377   37.6362 C   0  0  0  0  0  0  0  0  0  0  0  0
   32.9746  -21.4428   37.1136 C   0  0  0  0  0  0  0  0  0  0  0  0
   31.8074  -22.0239   36.5078 C   0  0  0  0  0  0  0  0  0  0  0  0
   30.5244  -21.6027   36.7855 C   0  0  0  0  0  0  0  0  0  0  0  0
   29.4036  -22.1585   36.2057 C   0  0  0  0  0  0  0  0  0  0  0  0
   29.5409  -23.1920   35.2964 C   0  0  0  0  0  0  0  0  0  0  0  0
   30.8111  -23.6336   34.9996 C   0  0  0  0  0  0  0  0  0  0  0  0
   31.9047  -23.0708   35.5835 C   0  0  0  0  0  0  0  0  0  0  0  0
  2  1  1  0  0  0
  2  3  1  0  0  0
  3  4  1  0  0  0
  4  5  1  0  0  0
  5  6  1  0  0  0
  6  7  1  0  0  0
  7  8  1  0  0  0
  8  9  2  0  0  0
  9 10  1  0  0  0
 10 11  1  0  0  0
 10 12  2  0  0  0
 12 13  1  0  0  0
 13 14  2  0  0  0
  5 15  1  0  0  0
 15 16  1  0  0  0
 16 17  1  0  0  0
 17 18  1  0  0  0
 18 19  1  0  0  0
 18 22  1  0  0  0
 22 23  3  0  0  0
 23 24  1  0  0  0
 24 25  2  0  0  0
 25 26  1  0  0  0
 26 27  2  0  0  0
 27 28  1  0  0  0
 28 29  2  0  0  0
 15  2  1  0  0  0
 29 24  1  0  0  0
 18  2  1  0  0  0
 14  4  1  0  0  0
 14  8  1  0  0  0
 11 20  1  0  0  0
 19 21  1  0  0  0
M  END
> <minimizedAffinity>
-4.03901

> <CNNscore>
0.5260514617

> <CNNaffinity>
4.7516193390

> <CNN_VS>
2.4995963573

> <CNNaffinity_variance>
0.1383462697

$$$$
[H]Oc1c([H])c([H])c2c(c1[H])C([H])([H])C([H])([H])[C@]1([H])[C@]2([H])C([H])([H])[C@]2(C([H])([H])[H])[C@@](C#Cc3c([H])c([H])c([H])c([H])c3[H])(O[H])C([H])([H])C([H])([H])[C@]21[H]


 29 33  0  0  0  0  0  0  0  0999 V2000
   35.6951  -18.5817   37.1860 C   0  0  0  0  0  0  0  0  0  0  0  0
   35.1379  -17.3094   36.6267 C   0  0  0  0  0  0  0  0  0  0  0  0
   33.6643  -17.3793   36.6069 C   0  0  0  0  0  0  0  0  0  0  0  0
   33.3531  -18.0762   35.3236 C   0  0  0  0  0  0  0  0  0  0  0  0
   34.7314  -18.3806   34.6831 C   0  0  0  0  0  0  0  0  0  0  0  0
   34.4662  -18.6279   33.2574 C   0  0  0  0  0  0  0  0  0  0  0  0
   33.6901  -19.9189   33.1435 C   0  0  0  0  0  0  0  0  0  0  0  0
   32.8858  -20.2263   34.3335 C   0  0  0  0  0  0  0  0  0  0  0  0
   32.2811  -21.4854   34.3503 C   0  0  0  0  0  0  0  0  0  0  0  0
   31.4986  -21.9100   35.3986 C   0  0  0  0  0  0  0  0  0  0  0  0
   30.9076  -23.1879   35.3748 O   0  0  0  0  0  0  0  0  0  0  0  0
   31.3139  -21.0567   36.4586 C   0  0  0  0  0  0  0  0  0  0  0  0
   31.9096  -19.8205   36.4386 C   0  0  0  0  0  0  0  0  0  0  0  0
   32.6967  -19.3668   35.4069 C   0  0  0  0  0  0  0  0  0  0  0  0
   35.4095  -17.1865   35.1094 C   0  0  0  0  0  0  0  0  0  0  0  0
   36.8405  -17.0017   35.0836 C   0  0  0  0  0  0  0  0  0  0  0  0
   37.0018  -15.9404   36.1869 C   0  0  0  0  0  0  0  0  0  0  0  0
   35.8208  -16.1345   37.1291 C   0  0  0  0  0  0  0  0  0  0  0  0
   36.3765  -16.4181   38.3909 O   0  0  0  0  0  0  0  0  0  0  0  0
   29.9910  -23.2397   34.9610 H   0  0  0  0  0  0  0  0  0  0  0  0
   37.0520  -15.7059   38.5401 H   0  0  0  0  0  0  0  0  0  0  0  0
   34.9790  -14.9452   37.1794 C   0  0  0  0  0  0  0  0  0  0  0  0
   34.2714  -13.9575   37.2278 C   0  0  0  0  0  0  0  0  0  0  0  0
   33.4536  -12.7770   37.2949 C   0  0  0  0  0  0  0  0  0  0  0  0
   33.9611  -11.5215   37.5533 C   0  0  0  0  0  0  0  0  0  0  0  0
   33.1787  -10.3880   37.6181 C   0  0  0  0  0  0  0  0  0  0  0  0
   31.8131  -10.4831   37.4186 C   0  0  0  0  0  0  0  0  0  0  0  0
   31.2781  -11.7251   37.1585 C   0  0  0  0  0  0  0  0  0  0  0  0
   32.0686  -12.8319   37.0988 C   0  0  0  0  0  0  0  0  0  0  0  0
  2  1  1  0  0  0
  2  3  1  0  0  0
  3  4  1  0  0  0
  4  5  1  0  0  0
  5  6  1  0  0  0
  6  7  1  0  0  0
  7  8  1  0  0  0
  8  9  2  0  0  0
  9 10  1  0  0  0
 10 11  1  0  0  0
 10 12  2  0  0  0
 12 13  1  0  0  0
 13 14  2  0  0  0
  5 15  1  0  0  0
 15 16  1  0  0  0
 16 17  1  0  0  0
 17 18  1  0  0  0
 18 19  1  0  0  0
 18 22  1  0  0  0
 22 23  3  0  0  0
 23 24  1  0  0  0
 24 25  2  0  0  0
 25 26  1  0  0  0
 26 27  2  0  0  0
 27 28  1  0  0  0
 28 29  2  0  0  0
 15  2  1  0  0  0
 29 24  1  0  0  0
 18  2  1  0  0  0
 14  4  1  0  0  0
 14  8  1  0  0  0
 11 20  1  0  0  0
 19 21  1  0  0  0
M  END
> <minimizedAffinity>
-4.87711

> <CNNscore>
0.5249826908

> <CNNaffinity>
5.4192395210

> <CNN_VS>
2.8450069427

> <CNNaffinity_variance>
0.1550469100

$$$$
[H]Oc1c([H])c([H])c2c(c1[H])C([H])([H])C([H])([H])[C@]1([H])[C@]2([H])C([H])([H])[C@]2(C([H])([H])[H])[C@@](C#Cc3c([H])c([H])c([H])c([H])c3[H])(O[H])C([H])([H])C([H])([H])[C@]21[H]


 29 33  0  0  0  0  0  0  0  0999 V2000
   33.8448  -21.5286   39.2402 C   0  0  0  0  0  0  0  0  0  0  0  0
   34.8834  -22.1098   38.3316 C   0  0  0  0  0  0  0  0  0  0  0  0
   35.0202  -21.2650   37.1297 C   0  0  0  0  0  0  0  0  0  0  0  0
   33.9481  -21.7605   36.2162 C   0  0  0  0  0  0  0  0  0  0  0  0
   33.2360  -22.8907   37.0024 C   0  0  0  0  0  0  0  0  0  0  0  0
   32.5171  -23.6884   35.9969 C   0  0  0  0  0  0  0  0  0  0  0  0
   31.3998  -22.8389   35.4382 C   0  0  0  0  0  0  0  0  0  0  0  0
   31.6734  -21.3970   35.4983 C   0  0  0  0  0  0  0  0  0  0  0  0
   30.6097  -20.5611   35.1504 C   0  0  0  0  0  0  0  0  0  0  0  0
   30.7200  -19.1902   35.1596 C   0  0  0  0  0  0  0  0  0  0  0  0
   29.6221  -18.3845   34.8015 O   0  0  0  0  0  0  0  0  0  0  0  0
   31.9229  -18.6378   35.5255 C   0  0  0  0  0  0  0  0  0  0  0  0
   32.9656  -19.4622   35.8667 C   0  0  0  0  0  0  0  0  0  0  0  0
   32.8875  -20.8347   35.8676 C   0  0  0  0  0  0  0  0  0  0  0  0
   34.3942  -23.4193   37.6706 C   0  0  0  0  0  0  0  0  0  0  0  0
   34.3519  -24.3173   38.7994 C   0  0  0  0  0  0  0  0  0  0  0  0
   35.7127  -24.0083   39.4493 C   0  0  0  0  0  0  0  0  0  0  0  0
   36.0515  -22.5782   39.0492 C   0  0  0  0  0  0  0  0  0  0  0  0
   36.1813  -21.8611   40.2536 O   0  0  0  0  0  0  0  0  0  0  0  0
   29.5504  -18.1494   33.8251 H   0  0  0  0  0  0  0  0  0  0  0  0
   36.7948  -22.4064   40.8124 H   0  0  0  0  0  0  0  0  0  0  0  0
   37.2806  -22.5212   38.2671 C   0  0  0  0  0  0  0  0  0  0  0  0
   38.3040  -22.4645   37.6129 C   0  0  0  0  0  0  0  0  0  0  0  0
   39.5271  -22.4011   36.8601 C   0  0  0  0  0  0  0  0  0  0  0  0
   40.7284  -22.8874   37.3303 C   0  0  0  0  0  0  0  0  0  0  0  0
   41.9027  -22.8276   36.6101 C   0  0  0  0  0  0  0  0  0  0  0  0
   41.9077  -22.2570   35.3499 C   0  0  0  0  0  0  0  0  0  0  0  0
   40.7218  -21.7626   34.8543 C   0  0  0  0  0  0  0  0  0  0  0  0
   39.5733  -21.8317   35.5820 C   0  0  0  0  0  0  0  0  0  0  0  0
  2  1  1  0  0  0
  2  3  1  0  0  0
  3  4  1  0  0  0
  4  5  1  0  0  0
  5  6  1  0  0  0
  6  7  1  0  0  0
  7  8  1  0  0  0
  8  9  2  0  0  0
  9 10  1  0  0  0
 10 11  1  0  0  0
 10 12  2  0  0  0
 12 13  1  0  0  0
 13 14  2  0  0  0
  5 15  1  0  0  0
 15 16  1  0  0  0
 16 17  1  0  0  0
 17 18  1  0  0  0
 18 19  1  0  0  0
 18 22  1  0  0  0
 22 23  3  0  0  0
 23 24  1  0  0  0
 24 25  2  0  0  0
 25 26  1  0  0  0
 26 27  2  0  0  0
 27 28  1  0  0  0
 28 29  2  0  0  0
 15  2  1  0  0  0
 29 24  1  0  0  0
 18  2  1  0  0  0
 14  4  1  0  0  0
 14  8  1  0  0  0
 11 20  1  0  0  0
 19 21  1  0  0  0
M  END
> <minimizedAffinity>
-3.86995

> <CNNscore>
0.5203616023

> <CNNaffinity>
4.8079404831

> <CNN_VS>
2.5018675327

> <CNNaffinity_variance>
0.0535221323

$$$$
[H]Oc1c([H])c([H])c2c(c1[H])C([H])([H])C([H])([H])[C@]1([H])[C@]2([H])C([H])([H])C([H])([H])[C@]2(C([H])([H])[H])[C@@](C#Cc3nc([H])c([H])c([H])c3[H])(O[H])C([H])([H])C([H])([H])[C@]21[H]


 30 34  0  0  0  0  0  0  0  0999 V2000
   35.6870  -24.8132   39.0177 C   0  0  0  0  0  0  0  0  0  0  0  0
   34.7705  -23.6334   38.9020 C   0  0  0  0  0  0  0  0  0  0  0  0
   35.3355  -22.6139   37.9807 C   0  0  0  0  0  0  0  0  0  0  0  0
   36.7371  -22.3236   38.4577 C   0  0  0  0  0  0  0  0  0  0  0  0
   36.7298  -21.8222   39.8498 C   0  0  0  0  0  0  0  0  0  0  0  0
   35.8509  -22.5751   40.8065 C   0  0  0  0  0  0  0  0  0  0  0  0
   35.6369  -21.6935   42.0172 C   0  0  0  0  0  0  0  0  0  0  0  0
   36.8232  -20.8998   42.4330 C   0  0  0  0  0  0  0  0  0  0  0  0
   38.0978  -21.2847   41.7790 C   0  0  0  0  0  0  0  0  0  0  0  0
   39.3184  -21.1828   42.4553 C   0  0  0  0  0  0  0  0  0  0  0  0
   40.4910  -21.5421   41.8315 C   0  0  0  0  0  0  0  0  0  0  0  0
   41.7383  -21.4600   42.4611 O   0  0  0  0  0  0  0  0  0  0  0  0
   40.4534  -21.9972   40.5519 C   0  0  0  0  0  0  0  0  0  0  0  0
   39.2485  -22.0963   39.8888 C   0  0  0  0  0  0  0  0  0  0  0  0
   38.0557  -21.7459   40.4811 C   0  0  0  0  0  0  0  0  0  0  0  0
   34.5363  -22.9335   40.2257 C   0  0  0  0  0  0  0  0  0  0  0  0
   33.7381  -23.9248   40.9744 C   0  0  0  0  0  0  0  0  0  0  0  0
   32.7843  -24.4605   39.8988 C   0  0  0  0  0  0  0  0  0  0  0  0
   33.4055  -24.1253   38.5683 C   0  0  0  0  0  0  0  0  0  0  0  0
   33.5452  -25.2820   37.7770 O   0  0  0  0  0  0  0  0  0  0  0  0
   42.1376  -22.2212   42.9939 H   0  0  0  0  0  0  0  0  0  0  0  0
   33.5529  -25.0581   36.8150 H   0  0  0  0  0  0  0  0  0  0  0  0
   32.7035  -23.0735   37.8558 C   0  0  0  0  0  0  0  0  0  0  0  0
   32.1274  -22.2067   37.2459 C   0  0  0  0  0  0  0  0  0  0  0  0
   31.4585  -21.1731   36.5020 C   0  0  0  0  0  0  0  0  0  0  0  0
   30.1306  -21.2871   36.1195 C   0  0  0  0  0  0  0  0  0  0  0  0
   29.4749  -20.3040   35.4056 C   0  0  0  0  0  0  0  0  0  0  0  0
   30.1536  -19.1565   35.0508 C   0  0  0  0  0  0  0  0  0  0  0  0
   31.4680  -19.0615   35.4385 C   0  0  0  0  0  0  0  0  0  0  0  0
   32.0852  -20.0278   36.1312 N   0  0  0  0  0  0  0  0  0  0  0  0
  2  1  1  0  0  0
  2  3  1  0  0  0
  3  4  1  0  0  0
  4  5  1  0  0  0
  5  6  1  0  0  0
  6  7  1  0  0  0
  7  8  1  0  0  0
  8  9  1  0  0  0
  9 10  2  0  0  0
 10 11  1  0  0  0
 11 12  1  0  0  0
 11 13  2  0  0  0
 13 14  1  0  0  0
 14 15  2  0  0  0
  6 16  1  0  0  0
 16 17  1  0  0  0
 17 18  1  0  0  0
 18 19  1  0  0  0
 19 20  1  0  0  0
 19 23  1  0  0  0
 23 24  3  0  0  0
 24 25  1  0  0  0
 25 26  2  0  0  0
 26 27  1  0  0  0
 27 28  2  0  0  0
 28 29  1  0  0  0
 29 30  2  0  0  0
 16  2  1  0  0  0
 30 25  1  0  0  0
 19  2  1  0  0  0
 15  5  1  0  0  0
 15  9  1  0  0  0
 12 21  1  0  0  0
 20 22  1  0  0  0
M  END
> <minimizedAffinity>
-4.04813

> <CNNscore>
0.7094654441

> <CNNaffinity>
4.8143296242

> <CNN_VS>
3.4156005383

> <CNNaffinity_variance>
0.0100900717

$$$$
[H]Oc1c([H])c([H])c2c(c1[H])C([H])([H])C([H])([H])[C@]1([H])[C@]2([H])C([H])([H])C([H])([H])[C@]2(C([H])([H])[H])[C@@](C#Cc3nc([H])c([H])c([H])c3[H])(O[H])C([H])([H])C([H])([H])[C@]21[H]


 30 34  0  0  0  0  0  0  0  0999 V2000
   36.2608  -20.4975   38.7308 C   0  0  0  0  0  0  0  0  0  0  0  0
   37.1324  -21.6395   38.3048 C   0  0  0  0  0  0  0  0  0  0  0  0
   36.4284  -22.5034   37.3222 C   0  0  0  0  0  0  0  0  0  0  0  0
   35.1013  -22.8726   37.9378 C   0  0  0  0  0  0  0  0  0  0  0  0
   35.2922  -23.5876   39.2191 C   0  0  0  0  0  0  0  0  0  0  0  0
   36.3073  -22.9909   40.1507 C   0  0  0  0  0  0  0  0  0  0  0  0
   36.6715  -24.0517   41.1661 C   0  0  0  0  0  0  0  0  0  0  0  0
   35.5406  -24.9071   41.6127 C   0  0  0  0  0  0  0  0  0  0  0  0
   34.1946  -24.4302   41.2109 C   0  0  0  0  0  0  0  0  0  0  0  0
   33.0775  -24.6440   42.0258 C   0  0  0  0  0  0  0  0  0  0  0  0
   31.8363  -24.1965   41.6353 C   0  0  0  0  0  0  0  0  0  0  0  0
   30.6866  -24.3835   42.4114 O   0  0  0  0  0  0  0  0  0  0  0  0
   31.7046  -23.5448   40.4506 C   0  0  0  0  0  0  0  0  0  0  0  0
   32.8080  -23.3360   39.6503 C   0  0  0  0  0  0  0  0  0  0  0  0
   34.0651  -23.7695   40.0086 C   0  0  0  0  0  0  0  0  0  0  0  0
   37.5351  -22.5385   39.4564 C   0  0  0  0  0  0  0  0  0  0  0  0
   38.4458  -21.6740   40.2334 C   0  0  0  0  0  0  0  0  0  0  0  0
   39.2509  -20.9702   39.1334 C   0  0  0  0  0  0  0  0  0  0  0  0
   38.4464  -21.0941   37.8661 C   0  0  0  0  0  0  0  0  0  0  0  0
   38.2185  -19.8276   37.2937 O   0  0  0  0  0  0  0  0  0  0  0  0
   30.3777  -23.7181   43.1075 H   0  0  0  0  0  0  0  0  0  0  0  0
   38.0742  -19.8966   36.3191 H   0  0  0  0  0  0  0  0  0  0  0  0
   39.0254  -22.0164   36.9067 C   0  0  0  0  0  0  0  0  0  0  0  0
   39.4982  -22.7720   36.0939 C   0  0  0  0  0  0  0  0  0  0  0  0
   40.0427  -23.6692   35.1101 C   0  0  0  0  0  0  0  0  0  0  0  0
   39.3884  -23.9333   33.9165 C   0  0  0  0  0  0  0  0  0  0  0  0
   39.8979  -24.7916   32.9626 C   0  0  0  0  0  0  0  0  0  0  0  0
   41.1050  -25.4195   33.1908 C   0  0  0  0  0  0  0  0  0  0  0  0
   41.7384  -25.1456   34.3787 C   0  0  0  0  0  0  0  0  0  0  0  0
   41.2259  -24.3091   35.2908 N   0  0  0  0  0  0  0  0  0  0  0  0
  2  1  1  0  0  0
  2  3  1  0  0  0
  3  4  1  0  0  0
  4  5  1  0  0  0
  5  6  1  0  0  0
  6  7  1  0  0  0
  7  8  1  0  0  0
  8  9  1  0  0  0
  9 10  2  0  0  0
 10 11  1  0  0  0
 11 12  1  0  0  0
 11 13  2  0  0  0
 13 14  1  0  0  0
 14 15  2  0  0  0
  6 16  1  0  0  0
 16 17  1  0  0  0
 17 18  1  0  0  0
 18 19  1  0  0  0
 19 20  1  0  0  0
 19 23  1  0  0  0
 23 24  3  0  0  0
 24 25  1  0  0  0
 25 26  2  0  0  0
 26 27  1  0  0  0
 27 28  2  0  0  0
 28 29  1  0  0  0
 29 30  2  0  0  0
 16  2  1  0  0  0
 30 25  1  0  0  0
 19  2  1  0  0  0
 15  5  1  0  0  0
 15  9  1  0  0  0
 12 21  1  0  0  0
 20 22  1  0  0  0
M  END
> <minimizedAffinity>
-2.37392

> <CNNscore>
0.7026484609

> <CNNaffinity>
5.2868604660

> <CNN_VS>
3.7148044109

> <CNNaffinity_variance>
0.8036361933

$$$$
[H]Oc1c([H])c([H])c2c(c1[H])C([H])([H])C([H])([H])[C@]1([H])[C@]2([H])C([H])([H])C([H])([H])[C@]2(C([H])([H])[H])[C@@](C#Cc3nc([H])c([H])c([H])c3[H])(O[H])C([H])([H])C([H])([H])[C@]21[H]


 30 34  0  0  0  0  0  0  0  0999 V2000
   40.1440  -19.3641   36.1557 C   0  0  0  0  0  0  0  0  0  0  0  0
   38.7901  -19.9803   35.9750 C   0  0  0  0  0  0  0  0  0  0  0  0
   38.0163  -19.9363   37.2426 C   0  0  0  0  0  0  0  0  0  0  0  0
   38.8898  -20.5498   38.3088 C   0  0  0  0  0  0  0  0  0  0  0  0
   39.2474  -21.9435   37.9636 C   0  0  0  0  0  0  0  0  0  0  0  0
   39.6826  -22.1697   36.5445 C   0  0  0  0  0  0  0  0  0  0  0  0
   39.5852  -23.6544   36.2702 C   0  0  0  0  0  0  0  0  0  0  0  0
   39.9789  -24.5293   37.4059 C   0  0  0  0  0  0  0  0  0  0  0  0
   40.6556  -23.8355   38.5289 C   0  0  0  0  0  0  0  0  0  0  0  0
   41.6413  -24.4762   39.2875 C   0  0  0  0  0  0  0  0  0  0  0  0
   42.2563  -23.8175   40.3272 C   0  0  0  0  0  0  0  0  0  0  0  0
   43.2476  -24.4109   41.1173 O   0  0  0  0  0  0  0  0  0  0  0  0
   41.8979  -22.5382   40.6112 C   0  0  0  0  0  0  0  0  0  0  0  0
   40.9261  -21.9100   39.8613 C   0  0  0  0  0  0  0  0  0  0  0  0
   40.2894  -22.5379   38.8139 C   0  0  0  0  0  0  0  0  0  0  0  0
   38.8530  -21.4366   35.5604 C   0  0  0  0  0  0  0  0  0  0  0  0
   39.3866  -21.3548   34.1860 C   0  0  0  0  0  0  0  0  0  0  0  0
   38.6404  -20.1425   33.6141 C   0  0  0  0  0  0  0  0  0  0  0  0
   38.1378  -19.3518   34.7935 C   0  0  0  0  0  0  0  0  0  0  0  0
   38.5739  -18.0146   34.7204 O   0  0  0  0  0  0  0  0  0  0  0  0
   44.2329  -24.3594   40.8955 H   0  0  0  0  0  0  0  0  0  0  0  0
   37.9625  -17.4121   35.2088 H   0  0  0  0  0  0  0  0  0  0  0  0
   36.6995  -19.4347   34.9691 C   0  0  0  0  0  0  0  0  0  0  0  0
   35.5029  -19.5157   35.0984 C   0  0  0  0  0  0  0  0  0  0  0  0
   34.0736  -19.6137   35.2282 C   0  0  0  0  0  0  0  0  0  0  0  0
   33.2125  -18.8764   34.4297 C   0  0  0  0  0  0  0  0  0  0  0  0
   31.8390  -18.9594   34.5421 C   0  0  0  0  0  0  0  0  0  0  0  0
   31.2853  -19.8049   35.4813 C   0  0  0  0  0  0  0  0  0  0  0  0
   32.1540  -20.5271   36.2629 C   0  0  0  0  0  0  0  0  0  0  0  0
   33.4842  -20.4312   36.1371 N   0  0  0  0  0  0  0  0  0  0  0  0
  2  1  1  0  0  0
  2  3  1  0  0  0
  3  4  1  0  0  0
  4  5  1  0  0  0
  5  6  1  0  0  0
  6  7  1  0  0  0
  7  8  1  0  0  0
  8  9  1  0  0  0
  9 10  2  0  0  0
 10 11  1  0  0  0
 11 12  1  0  0  0
 11 13  2  0  0  0
 13 14  1  0  0  0
 14 15  2  0  0  0
  6 16  1  0  0  0
 16 17  1  0  0  0
 17 18  1  0  0  0
 18 19  1  0  0  0
 19 20  1  0  0  0
 19 23  1  0  0  0
 23 24  3  0  0  0
 24 25  1  0  0  0
 25 26  2  0  0  0
 26 27  1  0  0  0
 27 28  2  0  0  0
 28 29  1  0  0  0
 29 30  2  0  0  0
 16  2  1  0  0  0
 30 25  1  0  0  0
 19  2  1  0  0  0
 15  5  1  0  0  0
 15  9  1  0  0  0
 12 21  1  0  0  0
 20 22  1  0  0  0
M  END
> <minimizedAffinity>
-4.66305

> <CNNscore>
0.6034026742

> <CNNaffinity>
5.1455221176

> <CNN_VS>
3.1048219204

> <CNNaffinity_variance>
0.0605516620

$$$$
[H]Oc1c([H])c([H])c2c(c1[H])C([H])([H])C([H])([H])[C@]1([H])[C@]2([H])C([H])([H])C([H])([H])[C@]2(C([H])([H])[H])[C@@](C#Cc3nc([H])c([H])c([H])c3[H])(O[H])C([H])([H])C([H])([H])[C@]21[H]


 30 34  0  0  0  0  0  0  0  0999 V2000
   37.4466  -24.9426   38.8587 C   0  0  0  0  0  0  0  0  0  0  0  0
   37.4492  -23.9671   37.7213 C   0  0  0  0  0  0  0  0  0  0  0  0
   37.4261  -22.5692   38.2242 C   0  0  0  0  0  0  0  0  0  0  0  0
   36.2660  -22.4698   39.1838 C   0  0  0  0  0  0  0  0  0  0  0  0
   34.9914  -22.8034   38.5104 C   0  0  0  0  0  0  0  0  0  0  0  0
   35.0194  -24.0228   37.6347 C   0  0  0  0  0  0  0  0  0  0  0  0
   33.8125  -23.9569   36.7247 C   0  0  0  0  0  0  0  0  0  0  0  0
   32.5786  -23.4205   37.3570 C   0  0  0  0  0  0  0  0  0  0  0  0
   32.6364  -23.2850   38.8331 C   0  0  0  0  0  0  0  0  0  0  0  0
   31.4952  -23.4658   39.6222 C   0  0  0  0  0  0  0  0  0  0  0  0
   31.5674  -23.3336   40.9899 C   0  0  0  0  0  0  0  0  0  0  0  0
   30.4576  -23.5036   41.8256 O   0  0  0  0  0  0  0  0  0  0  0  0
   32.7576  -23.0257   41.5681 C   0  0  0  0  0  0  0  0  0  0  0  0
   33.8801  -22.8484   40.7872 C   0  0  0  0  0  0  0  0  0  0  0  0
   33.8454  -22.9727   39.4161 C   0  0  0  0  0  0  0  0  0  0  0  0
   36.2468  -24.1161   36.8108 C   0  0  0  0  0  0  0  0  0  0  0  0
   36.4997  -25.4160   36.1577 C   0  0  0  0  0  0  0  0  0  0  0  0
   38.0086  -25.3607   35.8862 C   0  0  0  0  0  0  0  0  0  0  0  0
   38.5725  -24.3098   36.8062 C   0  0  0  0  0  0  0  0  0  0  0  0
   39.6187  -24.8389   37.5867 O   0  0  0  0  0  0  0  0  0  0  0  0
   30.2003  -24.3964   42.2247 H   0  0  0  0  0  0  0  0  0  0  0  0
   40.2453  -24.1307   37.8717 H   0  0  0  0  0  0  0  0  0  0  0  0
   38.9818  -23.1013   36.1145 C   0  0  0  0  0  0  0  0  0  0  0  0
   39.3023  -22.0915   35.5378 C   0  0  0  0  0  0  0  0  0  0  0  0
   39.6638  -20.8885   34.8368 C   0  0  0  0  0  0  0  0  0  0  0  0
   38.7342  -20.1491   34.1214 C   0  0  0  0  0  0  0  0  0  0  0  0
   39.0655  -18.9928   33.4436 C   0  0  0  0  0  0  0  0  0  0  0  0
   40.3689  -18.5415   33.4693 C   0  0  0  0  0  0  0  0  0  0  0  0
   41.2755  -19.2869   34.1832 C   0  0  0  0  0  0  0  0  0  0  0  0
   40.9325  -20.4065   34.8338 N   0  0  0  0  0  0  0  0  0  0  0  0
  2  1  1  0  0  0
  2  3  1  0  0  0
  3  4  1  0  0  0
  4  5  1  0  0  0
  5  6  1  0  0  0
  6  7  1  0  0  0
  7  8  1  0  0  0
  8  9  1  0  0  0
  9 10  2  0  0  0
 10 11  1  0  0  0
 11 12  1  0  0  0
 11 13  2  0  0  0
 13 14  1  0  0  0
 14 15  2  0  0  0
  6 16  1  0  0  0
 16 17  1  0  0  0
 17 18  1  0  0  0
 18 19  1  0  0  0
 19 20  1  0  0  0
 19 23  1  0  0  0
 23 24  3  0  0  0
 24 25  1  0  0  0
 25 26  2  0  0  0
 26 27  1  0  0  0
 27 28  2  0  0  0
 28 29  1  0  0  0
 29 30  2  0  0  0
 16  2  1  0  0  0
 30 25  1  0  0  0
 19  2  1  0  0  0
 15  5  1  0  0  0
 15  9  1  0  0  0
 12 21  1  0  0  0
 20 22  1  0  0  0
M  END
> <minimizedAffinity>
-2.95759

> <CNNscore>
0.5877189636

> <CNNaffinity>
5.0131287575

> <CNN_VS>
2.9463107586

> <CNNaffinity_variance>
0.3968433440

$$$$
[H]Oc1c([H])c([H])c2c(c1[H])C([H])([H])C([H])([H])[C@]1([H])[C@]2([H])C([H])([H])C([H])([H])[C@]2(C([H])([H])[H])[C@@](C#Cc3nc([H])c([H])c([H])c3[H])(O[H])C([H])([H])C([H])([H])[C@]21[H]


 30 34  0  0  0  0  0  0  0  0999 V2000
   37.4859  -21.4757   35.8899 C   0  0  0  0  0  0  0  0  0  0  0  0
   37.9027  -20.2645   35.1124 C   0  0  0  0  0  0  0  0  0  0  0  0
   38.3550  -20.6420   33.7485 C   0  0  0  0  0  0  0  0  0  0  0  0
   39.4003  -21.7168   33.9173 C   0  0  0  0  0  0  0  0  0  0  0  0
   40.5375  -21.2273   34.7275 C   0  0  0  0  0  0  0  0  0  0  0  0
   40.1705  -20.4646   35.9677 C   0  0  0  0  0  0  0  0  0  0  0  0
   41.3975  -19.6980   36.4100 C   0  0  0  0  0  0  0  0  0  0  0  0
   42.6854  -20.4191   36.2329 C   0  0  0  0  0  0  0  0  0  0  0  0
   42.5591  -21.8610   35.9080 C   0  0  0  0  0  0  0  0  0  0  0  0
   43.5060  -22.7895   36.3541 C   0  0  0  0  0  0  0  0  0  0  0  0
   43.3737  -24.1227   36.0407 C   0  0  0  0  0  0  0  0  0  0  0  0
   44.2910  -25.0928   36.4607 O   0  0  0  0  0  0  0  0  0  0  0  0
   42.3146  -24.5303   35.2938 C   0  0  0  0  0  0  0  0  0  0  0  0
   41.3834  -23.6123   34.8561 C   0  0  0  0  0  0  0  0  0  0  0  0
   41.4835  -22.2706   35.1502 C   0  0  0  0  0  0  0  0  0  0  0  0
   39.0532  -19.5157   35.7547 C   0  0  0  0  0  0  0  0  0  0  0  0
   38.4302  -18.9543   36.9701 C   0  0  0  0  0  0  0  0  0  0  0  0
   37.0548  -18.5064   36.4590 C   0  0  0  0  0  0  0  0  0  0  0  0
   36.8064  -19.2593   35.1783 C   0  0  0  0  0  0  0  0  0  0  0  0
   35.5844  -19.9570   35.2385 O   0  0  0  0  0  0  0  0  0  0  0  0
   44.2000  -25.5959   37.3333 H   0  0  0  0  0  0  0  0  0  0  0  0
   35.2122  -20.1044   34.3356 H   0  0  0  0  0  0  0  0  0  0  0  0
   36.8844  -18.4216   33.9957 C   0  0  0  0  0  0  0  0  0  0  0  0
   36.9423  -17.7410   33.0014 C   0  0  0  0  0  0  0  0  0  0  0  0
   37.0166  -16.9495   31.8026 C   0  0  0  0  0  0  0  0  0  0  0  0
   35.9475  -16.8440   30.9260 C   0  0  0  0  0  0  0  0  0  0  0  0
   36.0034  -16.0885   29.7717 C   0  0  0  0  0  0  0  0  0  0  0  0
   37.1617  -15.4053   29.4638 C   0  0  0  0  0  0  0  0  0  0  0  0
   38.2099  -15.5218   30.3440 C   0  0  0  0  0  0  0  0  0  0  0  0
   38.1343  -16.2607   31.4588 N   0  0  0  0  0  0  0  0  0  0  0  0
  2  1  1  0  0  0
  2  3  1  0  0  0
  3  4  1  0  0  0
  4  5  1  0  0  0
  5  6  1  0  0  0
  6  7  1  0  0  0
  7  8  1  0  0  0
  8  9  1  0  0  0
  9 10  2  0  0  0
 10 11  1  0  0  0
 11 12  1  0  0  0
 11 13  2  0  0  0
 13 14  1  0  0  0
 14 15  2  0  0  0
  6 16  1  0  0  0
 16 17  1  0  0  0
 17 18  1  0  0  0
 18 19  1  0  0  0
 19 20  1  0  0  0
 19 23  1  0  0  0
 23 24  3  0  0  0
 24 25  1  0  0  0
 25 26  2  0  0  0
 26 27  1  0  0  0
 27 28  2  0  0  0
 28 29  1  0  0  0
 29 30  2  0  0  0
 16  2  1  0  0  0
 30 25  1  0  0  0
 19  2  1  0  0  0
 15  5  1  0  0  0
 15  9  1  0  0  0
 12 21  1  0  0  0
 20 22  1  0  0  0
M  END
> <minimizedAffinity>
4.79996

> <CNNscore>
0.5618836880

> <CNNaffinity>
5.4069309235

> <CNN_VS>
3.0380663872

> <CNNaffinity_variance>
0.6546416879

$$$$
[H]Oc1c([H])c([H])c2c(c1[H])C([H])([H])C([H])([H])[C@]1([H])[C@]2([H])C([H])([H])C([H])([H])[C@]2(C([H])([H])[H])[C@@](C#Cc3nc([H])c([H])c([H])c3[H])(O[H])C([H])([H])C([H])([H])[C@]21[H]


 30 34  0  0  0  0  0  0  0  0999 V2000
   36.3339  -20.4933   36.2009 C   0  0  0  0  0  0  0  0  0  0  0  0
   37.7463  -20.9935   36.2110 C   0  0  0  0  0  0  0  0  0  0  0  0
   37.7895  -22.4589   35.9700 C   0  0  0  0  0  0  0  0  0  0  0  0
   36.8516  -23.0931   36.9673 C   0  0  0  0  0  0  0  0  0  0  0  0
   37.2621  -22.7799   38.3539 C   0  0  0  0  0  0  0  0  0  0  0  0
   37.6305  -21.3477   38.6143 C   0  0  0  0  0  0  0  0  0  0  0  0
   38.4116  -21.3074   39.9093 C   0  0  0  0  0  0  0  0  0  0  0  0
   37.9319  -22.2426   40.9607 C   0  0  0  0  0  0  0  0  0  0  0  0
   36.6161  -22.8717   40.6898 C   0  0  0  0  0  0  0  0  0  0  0  0
   35.7353  -23.1852   41.7307 C   0  0  0  0  0  0  0  0  0  0  0  0
   34.5199  -23.7708   41.4604 C   0  0  0  0  0  0  0  0  0  0  0  0
   33.6020  -24.1049   42.4629 O   0  0  0  0  0  0  0  0  0  0  0  0
   34.1821  -24.0423   40.1728 C   0  0  0  0  0  0  0  0  0  0  0  0
   35.0528  -23.7318   39.1497 C   0  0  0  0  0  0  0  0  0  0  0  0
   36.2769  -23.1455   39.3826 C   0  0  0  0  0  0  0  0  0  0  0  0
   38.4496  -20.7545   37.5320 C   0  0  0  0  0  0  0  0  0  0  0  0
   38.5983  -19.2856   37.5537 C   0  0  0  0  0  0  0  0  0  0  0  0
   38.9796  -18.9712   36.1013 C   0  0  0  0  0  0  0  0  0  0  0  0
   38.5512  -20.1577   35.2782 C   0  0  0  0  0  0  0  0  0  0  0  0
   37.7092  -19.7556   34.2233 O   0  0  0  0  0  0  0  0  0  0  0  0
   32.8864  -23.4689   42.7886 H   0  0  0  0  0  0  0  0  0  0  0  0
   37.7492  -20.3941   33.4709 H   0  0  0  0  0  0  0  0  0  0  0  0
   39.6648  -20.9547   34.7974 C   0  0  0  0  0  0  0  0  0  0  0  0
   40.5973  -21.6187   34.4171 C   0  0  0  0  0  0  0  0  0  0  0  0
   41.7232  -22.4009   33.9814 C   0  0  0  0  0  0  0  0  0  0  0  0
   41.9368  -22.6971   32.6438 C   0  0  0  0  0  0  0  0  0  0  0  0
   43.0123  -23.4463   32.2101 C   0  0  0  0  0  0  0  0  0  0  0  0
   43.9199  -23.9266   33.1314 C   0  0  0  0  0  0  0  0  0  0  0  0
   43.6918  -23.6230   34.4517 C   0  0  0  0  0  0  0  0  0  0  0  0
   42.6412  -22.8941   34.8509 N   0  0  0  0  0  0  0  0  0  0  0  0
  2  1  1  0  0  0
  2  3  1  0  0  0
  3  4  1  0  0  0
  4  5  1  0  0  0
  5  6  1  0  0  0
  6  7  1  0  0  0
  7  8  1  0  0  0
  8  9  1  0  0  0
  9 10  2  0  0  0
 10 11  1  0  0  0
 11 12  1  0  0  0
 11 13  2  0  0  0
 13 14  1  0  0  0
 14 15  2  0  0  0
  6 16  1  0  0  0
 16 17  1  0  0  0
 17 18  1  0  0  0
 18 19  1  0  0  0
 19 20  1  0  0  0
 19 23  1  0  0  0
 23 24  3  0  0  0
 24 25  1  0  0  0
 25 26  2  0  0  0
 26 27  1  0  0  0
 27 28  2  0  0  0
 28 29  1  0  0  0
 29 30  2  0  0  0
 16  2  1  0  0  0
 30 25  1  0  0  0
 19  2  1  0  0  0
 15  5  1  0  0  0
 15  9  1  0  0  0
 12 21  1  0  0  0
 20 22  1  0  0  0
M  END
> <minimizedAffinity>
-2.74009

> <CNNscore>
0.5593528152

> <CNNaffinity>
5.2052941322

> <CNN_VS>
2.9115958214

> <CNNaffinity_variance>
0.5596808195

$$$$
[H]Oc1c([H])c([H])c2c(c1[H])C([H])([H])C([H])([H])[C@]1([H])[C@]2([H])C([H])([H])C([H])([H])[C@]2(C([H])([H])[H])[C@@](C#Cc3nc([H])c([H])c([H])c3[H])(O[H])C([H])([H])C([H])([H])[C@]21[H]


 30 34  0  0  0  0  0  0  0  0999 V2000
   35.7309  -24.8547   39.3351 C   0  0  0  0  0  0  0  0  0  0  0  0
   35.4343  -23.7166   38.4066 C   0  0  0  0  0  0  0  0  0  0  0  0
   35.0701  -22.4943   39.1688 C   0  0  0  0  0  0  0  0  0  0  0  0
   33.9638  -22.8850   40.1174 C   0  0  0  0  0  0  0  0  0  0  0  0
   32.7930  -23.4082   39.3792 C   0  0  0  0  0  0  0  0  0  0  0  0
   33.1006  -24.3901   38.2857 C   0  0  0  0  0  0  0  0  0  0  0  0
   31.8821  -24.4728   37.3928 C   0  0  0  0  0  0  0  0  0  0  0  0
   30.5780  -24.4076   38.1036 C   0  0  0  0  0  0  0  0  0  0  0  0
   30.6584  -24.5422   39.5787 C   0  0  0  0  0  0  0  0  0  0  0  0
   29.6361  -25.1612   40.3062 C   0  0  0  0  0  0  0  0  0  0  0  0
   29.7270  -25.2747   41.6745 C   0  0  0  0  0  0  0  0  0  0  0  0
   28.7341  -25.8839   42.4503 O   0  0  0  0  0  0  0  0  0  0  0  0
   30.8192  -24.7801   42.3136 C   0  0  0  0  0  0  0  0  0  0  0  0
   31.8247  -24.1709   41.5931 C   0  0  0  0  0  0  0  0  0  0  0  0
   31.7677  -24.0395   40.2234 C   0  0  0  0  0  0  0  0  0  0  0  0
   34.2758  -24.0014   37.4720 C   0  0  0  0  0  0  0  0  0  0  0  0
   34.8303  -25.0424   36.5837 C   0  0  0  0  0  0  0  0  0  0  0  0
   36.2610  -24.5433   36.3437 C   0  0  0  0  0  0  0  0  0  0  0  0
   36.5700  -23.5741   37.4545 C   0  0  0  0  0  0  0  0  0  0  0  0
   37.7484  -23.9476   38.1295 O   0  0  0  0  0  0  0  0  0  0  0  0
   28.7334  -26.8716   42.6676 H   0  0  0  0  0  0  0  0  0  0  0  0
   38.1810  -23.1667   38.5519 H   0  0  0  0  0  0  0  0  0  0  0  0
   36.6237  -22.1927   37.0125 C   0  0  0  0  0  0  0  0  0  0  0  0
   36.6577  -21.0498   36.6283 C   0  0  0  0  0  0  0  0  0  0  0  0
   36.6989  -19.6949   36.1468 C   0  0  0  0  0  0  0  0  0  0  0  0
   36.5562  -18.6095   36.9979 C   0  0  0  0  0  0  0  0  0  0  0  0
   36.5935  -17.3037   36.5512 C   0  0  0  0  0  0  0  0  0  0  0  0
   36.7793  -17.0516   35.2076 C   0  0  0  0  0  0  0  0  0  0  0  0
   36.9188  -18.1392   34.3801 C   0  0  0  0  0  0  0  0  0  0  0  0
   36.8793  -19.3986   34.8348 N   0  0  0  0  0  0  0  0  0  0  0  0
  2  1  1  0  0  0
  2  3  1  0  0  0
  3  4  1  0  0  0
  4  5  1  0  0  0
  5  6  1  0  0  0
  6  7  1  0  0  0
  7  8  1  0  0  0
  8  9  1  0  0  0
  9 10  2  0  0  0
 10 11  1  0  0  0
 11 12  1  0  0  0
 11 13  2  0  0  0
 13 14  1  0  0  0
 14 15  2  0  0  0
  6 16  1  0  0  0
 16 17  1  0  0  0
 17 18  1  0  0  0
 18 19  1  0  0  0
 19 20  1  0  0  0
 19 23  1  0  0  0
 23 24  3  0  0  0
 24 25  1  0  0  0
 25 26  2  0  0  0
 26 27  1  0  0  0
 27 28  2  0  0  0
 28 29  1  0  0  0
 29 30  2  0  0  0
 16  2  1  0  0  0
 30 25  1  0  0  0
 19  2  1  0  0  0
 15  5  1  0  0  0
 15  9  1  0  0  0
 12 21  1  0  0  0
 20 22  1  0  0  0
M  END
> <minimizedAffinity>
-2.76028

> <CNNscore>
0.5589900613

> <CNNaffinity>
4.9216165543

> <CNN_VS>
2.7511346340

> <CNNaffinity_variance>
0.3964992464

$$$$
[H]Oc1c([H])c([H])c2c(c1[H])C([H])([H])C([H])([H])[C@]1([H])[C@]2([H])C([H])([H])C([H])([H])[C@]2(C([H])([H])[H])[C@@](C#Cc3nc([H])c([H])c([H])c3[H])(O[H])C([H])([H])C([H])([H])[C@]21[H]


 30 34  0  0  0  0  0  0  0  0999 V2000
   33.0285  -20.6544   34.1817 C   0  0  0  0  0  0  0  0  0  0  0  0
   32.4837  -20.9935   35.5358 C   0  0  0  0  0  0  0  0  0  0  0  0
   31.5567  -19.9348   36.0126 C   0  0  0  0  0  0  0  0  0  0  0  0
   32.2967  -18.6246   35.9020 C   0  0  0  0  0  0  0  0  0  0  0  0
   33.5315  -18.6431   36.7169 C   0  0  0  0  0  0  0  0  0  0  0  0
   34.3683  -19.8843   36.5999 C   0  0  0  0  0  0  0  0  0  0  0  0
   35.3116  -19.9100   37.7825 C   0  0  0  0  0  0  0  0  0  0  0  0
   35.8502  -18.5839   38.1843 C   0  0  0  0  0  0  0  0  0  0  0  0
   35.6033  -17.4859   37.2178 C   0  0  0  0  0  0  0  0  0  0  0  0
   36.5238  -16.4451   37.0537 C   0  0  0  0  0  0  0  0  0  0  0  0
   36.2766  -15.4337   36.1541 C   0  0  0  0  0  0  0  0  0  0  0  0
   37.1627  -14.3695   35.9506 O   0  0  0  0  0  0  0  0  0  0  0  0
   35.1299  -15.4545   35.4258 C   0  0  0  0  0  0  0  0  0  0  0  0
   34.2252  -16.4821   35.5904 C   0  0  0  0  0  0  0  0  0  0  0  0
   34.4392  -17.5105   36.4809 C   0  0  0  0  0  0  0  0  0  0  0  0
   33.5627  -21.1273   36.5916 C   0  0  0  0  0  0  0  0  0  0  0  0
   34.2638  -22.3592   36.1777 C   0  0  0  0  0  0  0  0  0  0  0  0
   33.1054  -23.2714   35.7539 C   0  0  0  0  0  0  0  0  0  0  0  0
   31.9256  -22.3730   35.4896 C   0  0  0  0  0  0  0  0  0  0  0  0
   31.4142  -22.5884   34.1951 O   0  0  0  0  0  0  0  0  0  0  0  0
   37.9047  -14.3942   35.2639 H   0  0  0  0  0  0  0  0  0  0  0  0
   30.4584  -22.3453   34.1435 H   0  0  0  0  0  0  0  0  0  0  0  0
   30.8868  -22.4785   36.4977 C   0  0  0  0  0  0  0  0  0  0  0  0
   30.0297  -22.5852   37.3398 C   0  0  0  0  0  0  0  0  0  0  0  0
   29.0059  -22.7365   38.3389 C   0  0  0  0  0  0  0  0  0  0  0  0
   28.4898  -23.9780   38.6779 C   0  0  0  0  0  0  0  0  0  0  0  0
   27.5073  -24.1395   39.6343 C   0  0  0  0  0  0  0  0  0  0  0  0
   27.0086  -23.0317   40.2880 C   0  0  0  0  0  0  0  0  0  0  0  0
   27.5320  -21.8105   39.9389 C   0  0  0  0  0  0  0  0  0  0  0  0
   28.4854  -21.6764   39.0075 N   0  0  0  0  0  0  0  0  0  0  0  0
  2  1  1  0  0  0
  2  3  1  0  0  0
  3  4  1  0  0  0
  4  5  1  0  0  0
  5  6  1  0  0  0
  6  7  1  0  0  0
  7  8  1  0  0  0
  8  9  1  0  0  0
  9 10  2  0  0  0
 10 11  1  0  0  0
 11 12  1  0  0  0
 11 13  2  0  0  0
 13 14  1  0  0  0
 14 15  2  0  0  0
  6 16  1  0  0  0
 16 17  1  0  0  0
 17 18  1  0  0  0
 18 19  1  0  0  0
 19 20  1  0  0  0
 19 23  1  0  0  0
 23 24  3  0  0  0
 24 25  1  0  0  0
 25 26  2  0  0  0
 26 27  1  0  0  0
 27 28  2  0  0  0
 28 29  1  0  0  0
 29 30  2  0  0  0
 16  2  1  0  0  0
 30 25  1  0  0  0
 19  2  1  0  0  0
 15  5  1  0  0  0
 15  9  1  0  0  0
 12 21  1  0  0  0
 20 22  1  0  0  0
M  END
> <minimizedAffinity>
-3.46624

> <CNNscore>
0.5471515059

> <CNNaffinity>
5.3362531662

> <CNN_VS>
2.9197390079

> <CNNaffinity_variance>
0.2010509521

$$$$
[H]Oc1c([H])c([H])c2c(c1[H])C([H])([H])C([H])([H])[C@]1([H])[C@]2([H])C([H])([H])C([H])([H])[C@]2(C([H])([H])[H])[C@@](C#Cc3nc([H])c([H])c([H])c3[H])(O[H])C([H])([H])C([H])([H])[C@]21[H]


 30 34  0  0  0  0  0  0  0  0999 V2000
   36.1047  -21.4235   36.2466 C   0  0  0  0  0  0  0  0  0  0  0  0
   35.7123  -20.1016   36.8332 C   0  0  0  0  0  0  0  0  0  0  0  0
   36.9140  -19.2943   37.1672 C   0  0  0  0  0  0  0  0  0  0  0  0
   37.8008  -20.1651   38.0225 C   0  0  0  0  0  0  0  0  0  0  0  0
   37.0982  -20.5893   39.2537 C   0  0  0  0  0  0  0  0  0  0  0  0
   35.6884  -21.0699   39.0639 C   0  0  0  0  0  0  0  0  0  0  0  0
   35.0123  -21.0417   40.4171 C   0  0  0  0  0  0  0  0  0  0  0  0
   35.8765  -21.4423   41.5586 C   0  0  0  0  0  0  0  0  0  0  0  0
   37.1709  -22.0603   41.1806 C   0  0  0  0  0  0  0  0  0  0  0  0
   37.7587  -23.0521   41.9733 C   0  0  0  0  0  0  0  0  0  0  0  0
   38.9613  -23.6122   41.6080 C   0  0  0  0  0  0  0  0  0  0  0  0
   39.5927  -24.6067   42.3638 O   0  0  0  0  0  0  0  0  0  0  0  0
   39.5736  -23.1935   40.4698 C   0  0  0  0  0  0  0  0  0  0  0  0
   38.9911  -22.2159   39.6912 C   0  0  0  0  0  0  0  0  0  0  0  0
   37.7890  -21.6331   40.0254 C   0  0  0  0  0  0  0  0  0  0  0  0
   34.9150  -20.2359   38.1150 C   0  0  0  0  0  0  0  0  0  0  0  0
   33.6366  -20.8008   37.6385 C   0  0  0  0  0  0  0  0  0  0  0  0
   33.3942  -20.0195   36.3406 C   0  0  0  0  0  0  0  0  0  0  0  0
   34.7268  -19.4542   35.9242 C   0  0  0  0  0  0  0  0  0  0  0  0
   35.0408  -19.8358   34.6053 O   0  0  0  0  0  0  0  0  0  0  0  0
   39.4296  -25.5944   42.2204 H   0  0  0  0  0  0  0  0  0  0  0  0
   35.6539  -19.1874   34.1820 H   0  0  0  0  0  0  0  0  0  0  0  0
   34.8205  -18.0166   36.0999 C   0  0  0  0  0  0  0  0  0  0  0  0
   34.9166  -16.8219   36.2363 C   0  0  0  0  0  0  0  0  0  0  0  0
   35.0556  -15.3996   36.4006 C   0  0  0  0  0  0  0  0  0  0  0  0
   36.2759  -14.8113   36.6959 C   0  0  0  0  0  0  0  0  0  0  0  0
   36.4254  -13.4482   36.8565 C   0  0  0  0  0  0  0  0  0  0  0  0
   35.3268  -12.6248   36.7210 C   0  0  0  0  0  0  0  0  0  0  0  0
   34.1266  -13.2257   36.4284 C   0  0  0  0  0  0  0  0  0  0  0  0
   34.0038  -14.5509   36.2767 N   0  0  0  0  0  0  0  0  0  0  0  0
  2  1  1  0  0  0
  2  3  1  0  0  0
  3  4  1  0  0  0
  4  5  1  0  0  0
  5  6  1  0  0  0
  6  7  1  0  0  0
  7  8  1  0  0  0
  8  9  1  0  0  0
  9 10  2  0  0  0
 10 11  1  0  0  0
 11 12  1  0  0  0
 11 13  2  0  0  0
 13 14  1  0  0  0
 14 15  2  0  0  0
  6 16  1  0  0  0
 16 17  1  0  0  0
 17 18  1  0  0  0
 18 19  1  0  0  0
 19 20  1  0  0  0
 19 23  1  0  0  0
 23 24  3  0  0  0
 24 25  1  0  0  0
 25 26  2  0  0  0
 26 27  1  0  0  0
 27 28  2  0  0  0
 28 29  1  0  0  0
 29 30  2  0  0  0
 16  2  1  0  0  0
 30 25  1  0  0  0
 19  2  1  0  0  0
 15  5  1  0  0  0
 15  9  1  0  0  0
 12 21  1  0  0  0
 20 22  1  0  0  0
M  END
> <minimizedAffinity>
-5.73122

> <CNNscore>
0.5282565951

> <CNNaffinity>
5.2584166527

> <CNN_VS>
2.7777931690

> <CNNaffinity_variance>
0.0355773084

$$$$
[H]c1c([H])c([H])c([C@@]([H])(N([H])c2nc(N([H])c3c([H])c([H])c(S(=O)(=O)C([H])([H])[H])c([H])c3[H])nc3nc([H])n([H])c23)C([H])([H])[H])c([H])c1[H]


 32 35  0  0  0  0  0  0  0  0999 V2000
   36.2237  -17.3711   35.3988 C   0  0  0  0  0  0  0  0  0  0  0  0
   35.0552  -17.8293   34.9451 N   0  0  0  0  0  0  0  0  0  0  0  0
   33.8567  -17.1881   35.1320 C   0  0  0  0  0  0  0  0  0  0  0  0
   33.8556  -16.0404   35.8057 N   0  0  0  0  0  0  0  0  0  0  0  0
   34.9887  -15.5151   36.2933 C   0  0  0  0  0  0  0  0  0  0  0  0
   35.2383  -14.3956   36.9902 N   0  0  0  0  0  0  0  0  0  0  0  0
   36.5538  -14.3071   37.2501 C   0  0  0  0  0  0  0  0  0  0  0  0
   37.1206  -15.3967   36.7001 N   0  0  0  0  0  0  0  0  0  0  0  0
   36.1989  -16.1690   36.1008 C   0  0  0  0  0  0  0  0  0  0  0  0
   38.1472  -15.6125   36.7357 H   0  0  0  0  0  0  0  0  0  0  0  0
   37.4694  -18.0206   35.2445 N   0  0  0  0  0  0  0  0  0  0  0  0
   38.0933  -17.6867   34.4659 H   0  0  0  0  0  0  0  0  0  0  0  0
   39.2302  -18.7019   36.7159 C   0  0  0  0  0  0  0  0  0  0  0  0
   37.9394  -19.1026   36.0725 C   0  0  0  0  0  0  0  0  0  0  0  0
   36.9561  -19.7671   36.8963 C   0  0  0  0  0  0  0  0  0  0  0  0
   36.5689  -21.0681   36.6144 C   0  0  0  0  0  0  0  0  0  0  0  0
   35.6297  -21.7597   37.3479 C   0  0  0  0  0  0  0  0  0  0  0  0
   35.0177  -21.1618   38.4286 C   0  0  0  0  0  0  0  0  0  0  0  0
   35.3881  -19.8717   38.7242 C   0  0  0  0  0  0  0  0  0  0  0  0
   36.3478  -19.1748   37.9689 C   0  0  0  0  0  0  0  0  0  0  0  0
   32.6701  -17.7533   34.6446 N   0  0  0  0  0  0  0  0  0  0  0  0
   32.2017  -17.2903   33.7809 H   0  0  0  0  0  0  0  0  0  0  0  0
   31.9918  -18.8726   35.1493 C   0  0  0  0  0  0  0  0  0  0  0  0
   30.6307  -19.0648   34.8462 C   0  0  0  0  0  0  0  0  0  0  0  0
   29.9075  -20.1162   35.3290 C   0  0  0  0  0  0  0  0  0  0  0  0
   30.5132  -21.0359   36.1458 C   0  0  0  0  0  0  0  0  0  0  0  0
   31.8408  -20.8977   36.4754 C   0  0  0  0  0  0  0  0  0  0  0  0
   32.5536  -19.8122   35.9666 C   0  0  0  0  0  0  0  0  0  0  0  0
   29.5512  -22.3739   36.7461 S   0  0  0  0  0  0  0  0  0  0  0  0
   30.5153  -23.8590   36.6735 C   0  0  0  0  0  0  0  0  0  0  0  0
   28.3020  -22.5403   35.9112 O   0  0  0  0  0  0  0  0  0  0  0  0
   29.2133  -22.0868   38.1765 O   0  0  0  0  0  0  0  0  0  0  0  0
 13 14  1  0  0  0
 14 11  1  0  0  0
 11  1  1  0  0  0
  1  2  2  0  0  0
  2  3  1  0  0  0
  3 21  1  0  0  0
 21 23  1  0  0  0
 23 24  2  0  0  0
 24 25  1  0  0  0
 25 26  2  0  0  0
 26 27  1  0  0  0
 27 28  2  0  0  0
 26 29  1  0  0  0
 29 30  1  0  0  0
 29 31  2  0  0  0
 29 32  2  0  0  0
  3  4  2  0  0  0
  4  5  1  0  0  0
  5  6  1  0  0  0
  6  7  2  0  0  0
  7  8  1  0  0  0
  8  9  1  0  0  0
 14 15  1  0  0  0
 15 16  2  0  0  0
 16 17  1  0  0  0
 17 18  2  0  0  0
 18 19  1  0  0  0
 19 20  2  0  0  0
  9  1  1  0  0  0
 20 15  1  0  0  0
 28 23  1  0  0  0
  9  5  2  0  0  0
 11 12  1  0  0  0
 21 22  1  0  0  0
  8 10  1  0  0  0
M  END
> <minimizedAffinity>
-6.92904

> <CNNscore>
0.5061236620

> <CNNaffinity>
5.6677274704

> <CNN_VS>
2.8685710430

> <CNNaffinity_variance>
0.4619494081

$$$$
[H]c1c([H])c([H])c([C@@]([H])(N([H])c2nc(N([H])c3c([H])c([H])c(S(=O)(=O)C([H])([H])[H])c([H])c3[H])nc3nc([H])n([H])c23)C([H])([H])[H])c([H])c1[H]


 32 35  0  0  0  0  0  0  0  0999 V2000
   36.3182  -17.1198   35.4216 C   0  0  0  0  0  0  0  0  0  0  0  0
   35.1726  -17.6206   34.9547 N   0  0  0  0  0  0  0  0  0  0  0  0
   33.9408  -17.0651   35.1928 C   0  0  0  0  0  0  0  0  0  0  0  0
   33.8811  -15.9607   35.9330 N   0  0  0  0  0  0  0  0  0  0  0  0
   34.9879  -15.3972   36.4380 C   0  0  0  0  0  0  0  0  0  0  0  0
   35.1804  -14.3072   37.1970 N   0  0  0  0  0  0  0  0  0  0  0  0
   36.4919  -14.1545   37.4469 C   0  0  0  0  0  0  0  0  0  0  0  0
   37.1146  -15.1739   36.8271 N   0  0  0  0  0  0  0  0  0  0  0  0
   36.2320  -15.9643   36.1936 C   0  0  0  0  0  0  0  0  0  0  0  0
   38.1528  -15.3289   36.8383 H   0  0  0  0  0  0  0  0  0  0  0  0
   37.5980  -17.6825   35.2152 N   0  0  0  0  0  0  0  0  0  0  0  0
   38.3740  -17.0268   34.9413 H   0  0  0  0  0  0  0  0  0  0  0  0
   38.1166  -19.6723   33.9899 C   0  0  0  0  0  0  0  0  0  0  0  0
   37.9108  -19.0829   35.3504 C   0  0  0  0  0  0  0  0  0  0  0  0
   38.8493  -19.4437   36.3877 C   0  0  0  0  0  0  0  0  0  0  0  0
   40.1097  -18.8674   36.4245 C   0  0  0  0  0  0  0  0  0  0  0  0
   41.0594  -19.1714   37.3752 C   0  0  0  0  0  0  0  0  0  0  0  0
   40.7815  -20.0937   38.3612 C   0  0  0  0  0  0  0  0  0  0  0  0
   39.5370  -20.6765   38.3418 C   0  0  0  0  0  0  0  0  0  0  0  0
   38.5750  -20.3591   37.3666 C   0  0  0  0  0  0  0  0  0  0  0  0
   32.7831  -17.6717   34.6862 N   0  0  0  0  0  0  0  0  0  0  0  0
   32.3179  -17.2305   33.8094 H   0  0  0  0  0  0  0  0  0  0  0  0
   32.1305  -18.8082   35.1864 C   0  0  0  0  0  0  0  0  0  0  0  0
   30.7867  -19.0533   34.8464 C   0  0  0  0  0  0  0  0  0  0  0  0
   30.0876  -20.1239   35.3225 C   0  0  0  0  0  0  0  0  0  0  0  0
   30.7013  -21.0106   36.1692 C   0  0  0  0  0  0  0  0  0  0  0  0
   32.0128  -20.8203   36.5354 C   0  0  0  0  0  0  0  0  0  0  0  0
   32.7011  -19.7164   36.0326 C   0  0  0  0  0  0  0  0  0  0  0  0
   29.7704  -22.3747   36.7597 S   0  0  0  0  0  0  0  0  0  0  0  0
   30.8107  -23.8085   36.8084 C   0  0  0  0  0  0  0  0  0  0  0  0
   28.5890  -22.6374   35.8539 O   0  0  0  0  0  0  0  0  0  0  0  0
   29.3247  -22.0536   38.1529 O   0  0  0  0  0  0  0  0  0  0  0  0
 13 14  1  0  0  0
 14 11  1  0  0  0
 11  1  1  0  0  0
  1  2  2  0  0  0
  2  3  1  0  0  0
  3 21  1  0  0  0
 21 23  1  0  0  0
 23 24  2  0  0  0
 24 25  1  0  0  0
 25 26  2  0  0  0
 26 27  1  0  0  0
 27 28  2  0  0  0
 26 29  1  0  0  0
 29 30  1  0  0  0
 29 31  2  0  0  0
 29 32  2  0  0  0
  3  4  2  0  0  0
  4  5  1  0  0  0
  5  6  1  0  0  0
  6  7  2  0  0  0
  7  8  1  0  0  0
  8  9  1  0  0  0
 14 15  1  0  0  0
 15 16  2  0  0  0
 16 17  1  0  0  0
 17 18  2  0  0  0
 18 19  1  0  0  0
 19 20  2  0  0  0
  9  1  1  0  0  0
 20 15  1  0  0  0
 28 23  1  0  0  0
  9  5  2  0  0  0
 11 12  1  0  0  0
 21 22  1  0  0  0
  8 10  1  0  0  0
M  END
> <minimizedAffinity>
-7.53200

> <CNNscore>
0.4633632302

> <CNNaffinity>
5.6683392525

> <CNN_VS>
2.6264998913

> <CNNaffinity_variance>
0.3958571553

$$$$
[H]c1c([H])c([H])c([C@@]([H])(N([H])c2nc(N([H])c3c([H])c([H])c(S(=O)(=O)C([H])([H])[H])c([H])c3[H])nc3nc([H])n([H])c23)C([H])([H])[H])c([H])c1[H]


 32 35  0  0  0  0  0  0  0  0999 V2000
   35.3416  -16.5346   35.3908 C   0  0  0  0  0  0  0  0  0  0  0  0
   34.0486  -16.8467   35.2811 N   0  0  0  0  0  0  0  0  0  0  0  0
   33.5882  -18.0337   34.7699 C   0  0  0  0  0  0  0  0  0  0  0  0
   34.4815  -18.9299   34.3577 N   0  0  0  0  0  0  0  0  0  0  0  0
   35.7984  -18.6905   34.4350 C   0  0  0  0  0  0  0  0  0  0  0  0
   36.8707  -19.4210   34.0917 N   0  0  0  0  0  0  0  0  0  0  0  0
   37.9933  -18.7364   34.3685 C   0  0  0  0  0  0  0  0  0  0  0  0
   37.5985  -17.5614   34.8925 N   0  0  0  0  0  0  0  0  0  0  0  0
   36.2584  -17.4869   34.9535 C   0  0  0  0  0  0  0  0  0  0  0  0
   38.2527  -16.8047   35.2108 H   0  0  0  0  0  0  0  0  0  0  0  0
   35.8457  -15.3118   35.8887 N   0  0  0  0  0  0  0  0  0  0  0  0
   36.4197  -14.7242   35.2312 H   0  0  0  0  0  0  0  0  0  0  0  0
   36.9172  -14.8985   37.9889 C   0  0  0  0  0  0  0  0  0  0  0  0
   35.6316  -14.8192   37.2261 C   0  0  0  0  0  0  0  0  0  0  0  0
   34.8454  -13.6145   37.3585 C   0  0  0  0  0  0  0  0  0  0  0  0
   33.6414  -13.6348   38.0457 C   0  0  0  0  0  0  0  0  0  0  0  0
   32.8340  -12.5293   38.2017 C   0  0  0  0  0  0  0  0  0  0  0  0
   33.2069  -11.3177   37.6605 C   0  0  0  0  0  0  0  0  0  0  0  0
   34.3975  -11.2771   36.9750 C   0  0  0  0  0  0  0  0  0  0  0  0
   35.2140  -12.4115   36.8215 C   0  0  0  0  0  0  0  0  0  0  0  0
   32.2104  -18.2702   34.6652 N   0  0  0  0  0  0  0  0  0  0  0  0
   31.6144  -17.5672   34.0903 H   0  0  0  0  0  0  0  0  0  0  0  0
   31.4846  -19.3301   35.2286 C   0  0  0  0  0  0  0  0  0  0  0  0
   30.0988  -19.4305   35.0033 C   0  0  0  0  0  0  0  0  0  0  0  0
   29.3318  -20.4200   35.5459 C   0  0  0  0  0  0  0  0  0  0  0  0
   29.9161  -21.3665   36.3475 C   0  0  0  0  0  0  0  0  0  0  0  0
   31.2663  -21.3171   36.6021 C   0  0  0  0  0  0  0  0  0  0  0  0
   32.0239  -20.2934   36.0335 C   0  0  0  0  0  0  0  0  0  0  0  0
   28.8979  -22.6229   37.0262 S   0  0  0  0  0  0  0  0  0  0  0  0
   27.8602  -21.9153   38.2763 C   0  0  0  0  0  0  0  0  0  0  0  0
   29.7460  -23.7175   37.6326 O   0  0  0  0  0  0  0  0  0  0  0  0
   28.0336  -23.1539   35.9245 O   0  0  0  0  0  0  0  0  0  0  0  0
 13 14  1  0  0  0
 14 11  1  0  0  0
 11  1  1  0  0  0
  1  2  2  0  0  0
  2  3  1  0  0  0
  3 21  1  0  0  0
 21 23  1  0  0  0
 23 24  2  0  0  0
 24 25  1  0  0  0
 25 26  2  0  0  0
 26 27  1  0  0  0
 27 28  2  0  0  0
 26 29  1  0  0  0
 29 30  1  0  0  0
 29 31  2  0  0  0
 29 32  2  0  0  0
  3  4  2  0  0  0
  4  5  1  0  0  0
  5  6  1  0  0  0
  6  7  2  0  0  0
  7  8  1  0  0  0
  8  9  1  0  0  0
 14 15  1  0  0  0
 15 16  2  0  0  0
 16 17  1  0  0  0
 17 18  2  0  0  0
 18 19  1  0  0  0
 19 20  2  0  0  0
  9  1  1  0  0  0
 20 15  1  0  0  0
 28 23  1  0  0  0
  9  5  2  0  0  0
 11 12  1  0  0  0
 21 22  1  0  0  0
  8 10  1  0  0  0
M  END
> <minimizedAffinity>
-8.14751

> <CNNscore>
0.4036597311

> <CNNaffinity>
5.7971067429

> <CNN_VS>
2.3400585651

> <CNNaffinity_variance>
0.4035213888

$$$$
[H]c1c([H])c([H])c([C@@]([H])(N([H])c2nc(N([H])c3c([H])c([H])c(S(=O)(=O)C([H])([H])[H])c([H])c3[H])nc3nc([H])n([H])c23)C([H])([H])[H])c([H])c1[H]


 32 35  0  0  0  0  0  0  0  0999 V2000
   34.2427  -16.8850   35.4450 C   0  0  0  0  0  0  0  0  0  0  0  0
   35.4003  -17.5379   35.3232 N   0  0  0  0  0  0  0  0  0  0  0  0
   36.5999  -17.0631   35.7904 C   0  0  0  0  0  0  0  0  0  0  0  0
   36.6136  -15.8812   36.4019 N   0  0  0  0  0  0  0  0  0  0  0  0
   35.4919  -15.1647   36.5631 C   0  0  0  0  0  0  0  0  0  0  0  0
   35.2558  -13.9730   37.1333 N   0  0  0  0  0  0  0  0  0  0  0  0
   33.9479  -13.6780   37.0428 C   0  0  0  0  0  0  0  0  0  0  0  0
   33.3720  -14.7124   36.4029 N   0  0  0  0  0  0  0  0  0  0  0  0
   34.2805  -15.6506   36.0880 C   0  0  0  0  0  0  0  0  0  0  0  0
   32.3481  -14.7757   36.1804 H   0  0  0  0  0  0  0  0  0  0  0  0
   32.9970  -17.3355   34.9525 N   0  0  0  0  0  0  0  0  0  0  0  0
   32.1722  -16.6926   35.0688 H   0  0  0  0  0  0  0  0  0  0  0  0
   34.0932  -19.1482   33.8380 C   0  0  0  0  0  0  0  0  0  0  0  0
   32.7795  -18.6066   34.3091 C   0  0  0  0  0  0  0  0  0  0  0  0
   31.8716  -19.5208   34.9626 C   0  0  0  0  0  0  0  0  0  0  0  0
   30.5060  -19.4311   34.7412 C   0  0  0  0  0  0  0  0  0  0  0  0
   29.5809  -20.2596   35.3380 C   0  0  0  0  0  0  0  0  0  0  0  0
   29.9941  -21.2445   36.2094 C   0  0  0  0  0  0  0  0  0  0  0  0
   31.3446  -21.3494   36.4422 C   0  0  0  0  0  0  0  0  0  0  0  0
   32.2802  -20.4984   35.8279 C   0  0  0  0  0  0  0  0  0  0  0  0
   37.7753  -17.8020   35.5963 N   0  0  0  0  0  0  0  0  0  0  0  0
   38.3337  -17.6405   34.6788 H   0  0  0  0  0  0  0  0  0  0  0  0
   38.3345  -18.7527   36.4630 C   0  0  0  0  0  0  0  0  0  0  0  0
   39.7303  -18.8107   36.6357 C   0  0  0  0  0  0  0  0  0  0  0  0
   40.3376  -19.7296   37.4409 C   0  0  0  0  0  0  0  0  0  0  0  0
   39.5742  -20.6443   38.1195 C   0  0  0  0  0  0  0  0  0  0  0  0
   38.2057  -20.6343   37.9879 C   0  0  0  0  0  0  0  0  0  0  0  0
   37.6139  -19.6830   37.1572 C   0  0  0  0  0  0  0  0  0  0  0  0
   40.3907  -21.8092   39.1453 S   0  0  0  0  0  0  0  0  0  0  0  0
   39.5493  -23.3651   39.0387 C   0  0  0  0  0  0  0  0  0  0  0  0
   40.3961  -21.3342   40.5804 O   0  0  0  0  0  0  0  0  0  0  0  0
   41.7847  -21.9772   38.6244 O   0  0  0  0  0  0  0  0  0  0  0  0
 13 14  1  0  0  0
 14 11  1  0  0  0
 11  1  1  0  0  0
  1  2  2  0  0  0
  2  3  1  0  0  0
  3 21  1  0  0  0
 21 23  1  0  0  0
 23 24  2  0  0  0
 24 25  1  0  0  0
 25 26  2  0  0  0
 26 27  1  0  0  0
 27 28  2  0  0  0
 26 29  1  0  0  0
 29 30  1  0  0  0
 29 31  2  0  0  0
 29 32  2  0  0  0
  3  4  2  0  0  0
  4  5  1  0  0  0
  5  6  1  0  0  0
  6  7  2  0  0  0
  7  8  1  0  0  0
  8  9  1  0  0  0
 14 15  1  0  0  0
 15 16  2  0  0  0
 16 17  1  0  0  0
 17 18  2  0  0  0
 18 19  1  0  0  0
 19 20  2  0  0  0
  9  1  1  0  0  0
 20 15  1  0  0  0
 28 23  1  0  0  0
  9  5  2  0  0  0
 11 12  1  0  0  0
 21 22  1  0  0  0
  8 10  1  0  0  0
M  END
> <minimizedAffinity>
-7.14278

> <CNNscore>
0.3294567466

> <CNNaffinity>
5.5957937241

> <CNN_VS>
1.8435720205

> <CNNaffinity_variance>
0.3871706128

$$$$
[H]c1c([H])c([H])c([C@@]([H])(N([H])c2nc(N([H])c3c([H])c([H])c(S(=O)(=O)C([H])([H])[H])c([H])c3[H])nc3nc([H])n([H])c23)C([H])([H])[H])c([H])c1[H]


 32 35  0  0  0  0  0  0  0  0999 V2000
   36.3252  -17.3497   35.4023 C   0  0  0  0  0  0  0  0  0  0  0  0
   35.1558  -17.7853   34.9290 N   0  0  0  0  0  0  0  0  0  0  0  0
   33.9520  -17.1794   35.1863 C   0  0  0  0  0  0  0  0  0  0  0  0
   33.9463  -16.0919   35.9534 N   0  0  0  0  0  0  0  0  0  0  0  0
   35.0799  -15.5928   36.4667 C   0  0  0  0  0  0  0  0  0  0  0  0
   35.3256  -14.5317   37.2509 N   0  0  0  0  0  0  0  0  0  0  0  0
   36.6437  -14.4461   37.4981 C   0  0  0  0  0  0  0  0  0  0  0  0
   37.2161  -15.4777   36.8508 N   0  0  0  0  0  0  0  0  0  0  0  0
   36.2955  -16.2107   36.2026 C   0  0  0  0  0  0  0  0  0  0  0  0
   38.2460  -15.6808   36.8532 H   0  0  0  0  0  0  0  0  0  0  0  0
   37.5767  -17.9659   35.1762 N   0  0  0  0  0  0  0  0  0  0  0  0
   38.2341  -18.0354   35.9949 H   0  0  0  0  0  0  0  0  0  0  0  0
   37.7816  -17.4762   32.8422 C   0  0  0  0  0  0  0  0  0  0  0  0
   38.0126  -18.4993   33.9103 C   0  0  0  0  0  0  0  0  0  0  0  0
   39.2714  -19.2080   33.9006 C   0  0  0  0  0  0  0  0  0  0  0  0
   39.3199  -20.5557   34.2223 C   0  0  0  0  0  0  0  0  0  0  0  0
   40.4840  -21.2923   34.2456 C   0  0  0  0  0  0  0  0  0  0  0  0
   41.6877  -20.6948   33.9388 C   0  0  0  0  0  0  0  0  0  0  0  0
   41.6605  -19.3588   33.6173 C   0  0  0  0  0  0  0  0  0  0  0  0
   40.4667  -18.6162   33.5967 C   0  0  0  0  0  0  0  0  0  0  0  0
   32.7655  -17.7192   34.6707 N   0  0  0  0  0  0  0  0  0  0  0  0
   32.3369  -17.2570   33.7861 H   0  0  0  0  0  0  0  0  0  0  0  0
   32.0409  -18.8113   35.1706 C   0  0  0  0  0  0  0  0  0  0  0  0
   32.6693  -19.7423   36.0189 C   0  0  0  0  0  0  0  0  0  0  0  0
   32.0285  -20.8402   36.5146 C   0  0  0  0  0  0  0  0  0  0  0  0
   30.7167  -21.0645   36.1849 C   0  0  0  0  0  0  0  0  0  0  0  0
   30.0530  -20.1879   35.3595 C   0  0  0  0  0  0  0  0  0  0  0  0
   30.7349  -19.0749   34.8681 C   0  0  0  0  0  0  0  0  0  0  0  0
   29.9269  -22.4859   36.8421 S   0  0  0  0  0  0  0  0  0  0  0  0
   30.9736  -23.2131   38.0732 C   0  0  0  0  0  0  0  0  0  0  0  0
   29.6589  -23.4928   35.7469 O   0  0  0  0  0  0  0  0  0  0  0  0
   28.6537  -22.0402   37.4924 O   0  0  0  0  0  0  0  0  0  0  0  0
 13 14  1  0  0  0
 14 11  1  0  0  0
 11  1  1  0  0  0
  1  2  2  0  0  0
  2  3  1  0  0  0
  3 21  1  0  0  0
 21 23  1  0  0  0
 23 24  2  0  0  0
 24 25  1  0  0  0
 25 26  2  0  0  0
 26 27  1  0  0  0
 27 28  2  0  0  0
 26 29  1  0  0  0
 29 30  1  0  0  0
 29 31  2  0  0  0
 29 32  2  0  0  0
  3  4  2  0  0  0
  4  5  1  0  0  0
  5  6  1  0  0  0
  6  7  2  0  0  0
  7  8  1  0  0  0
  8  9  1  0  0  0
 14 15  1  0  0  0
 15 16  2  0  0  0
 16 17  1  0  0  0
 17 18  2  0  0  0
 18 19  1  0  0  0
 19 20  2  0  0  0
  9  1  1  0  0  0
 20 15  1  0  0  0
 28 23  1  0  0  0
  9  5  2  0  0  0
 11 12  1  0  0  0
 21 22  1  0  0  0
  8 10  1  0  0  0
M  END
> <minimizedAffinity>
-6.94046

> <CNNscore>
0.3266841769

> <CNNaffinity>
5.5714979172

> <CNN_VS>
1.8201202154

> <CNNaffinity_variance>
0.1388192326

$$$$
[H]c1c([H])c([H])c([C@@]([H])(N([H])c2nc(N([H])c3c([H])c([H])c(S(=O)(=O)C([H])([H])[H])c([H])c3[H])nc3nc([H])n([H])c23)C([H])([H])[H])c([H])c1[H]


 32 35  0  0  0  0  0  0  0  0999 V2000
   34.9209  -15.3442   36.4910 C   0  0  0  0  0  0  0  0  0  0  0  0
   33.8077  -14.6220   36.3475 N   0  0  0  0  0  0  0  0  0  0  0  0
   33.7427  -13.2667   36.5512 C   0  0  0  0  0  0  0  0  0  0  0  0
   34.8543  -12.6310   36.9136 N   0  0  0  0  0  0  0  0  0  0  0  0
   36.0122  -13.2865   37.0784 C   0  0  0  0  0  0  0  0  0  0  0  0
   37.2400  -12.8756   37.4318 N   0  0  0  0  0  0  0  0  0  0  0  0
   38.0791  -13.9249   37.4584 C   0  0  0  0  0  0  0  0  0  0  0  0
   37.3479  -15.0008   37.1138 N   0  0  0  0  0  0  0  0  0  0  0  0
   36.0716  -14.6585   36.8708 C   0  0  0  0  0  0  0  0  0  0  0  0
   37.7266  -15.9774   37.0446 H   0  0  0  0  0  0  0  0  0  0  0  0
   35.0135  -16.7432   36.3135 N   0  0  0  0  0  0  0  0  0  0  0  0
   35.0830  -17.3350   37.1807 H   0  0  0  0  0  0  0  0  0  0  0  0
   36.4204  -17.8391   34.7169 C   0  0  0  0  0  0  0  0  0  0  0  0
   35.0222  -17.4099   35.0359 C   0  0  0  0  0  0  0  0  0  0  0  0
   33.9566  -18.3528   34.7858 C   0  0  0  0  0  0  0  0  0  0  0  0
   32.7122  -18.1761   35.3709 C   0  0  0  0  0  0  0  0  0  0  0  0
   31.6543  -19.0396   35.1877 C   0  0  0  0  0  0  0  0  0  0  0  0
   31.7992  -20.1520   34.3867 C   0  0  0  0  0  0  0  0  0  0  0  0
   33.0259  -20.3450   33.7977 C   0  0  0  0  0  0  0  0  0  0  0  0
   34.0992  -19.4574   33.9915 C   0  0  0  0  0  0  0  0  0  0  0  0
   32.5247  -12.5885   36.4046 N   0  0  0  0  0  0  0  0  0  0  0  0
   32.2676  -12.2087   35.4200 H   0  0  0  0  0  0  0  0  0  0  0  0
   31.5708  -12.3295   37.3999 C   0  0  0  0  0  0  0  0  0  0  0  0
   31.6439  -13.0011   38.6348 C   0  0  0  0  0  0  0  0  0  0  0  0
   30.7313  -12.8155   39.6320 C   0  0  0  0  0  0  0  0  0  0  0  0
   29.6912  -11.9422   39.4435 C   0  0  0  0  0  0  0  0  0  0  0  0
   29.5701  -11.2591   38.2565 C   0  0  0  0  0  0  0  0  0  0  0  0
   30.5184  -11.4703   37.2558 C   0  0  0  0  0  0  0  0  0  0  0  0
   28.5388  -11.7297   40.7484 S   0  0  0  0  0  0  0  0  0  0  0  0
   29.0296  -12.7334   42.1239 C   0  0  0  0  0  0  0  0  0  0  0  0
   27.1531  -12.1319   40.2976 O   0  0  0  0  0  0  0  0  0  0  0  0
   28.5783  -10.2909   41.1618 O   0  0  0  0  0  0  0  0  0  0  0  0
 13 14  1  0  0  0
 14 11  1  0  0  0
 11  1  1  0  0  0
  1  2  2  0  0  0
  2  3  1  0  0  0
  3 21  1  0  0  0
 21 23  1  0  0  0
 23 24  2  0  0  0
 24 25  1  0  0  0
 25 26  2  0  0  0
 26 27  1  0  0  0
 27 28  2  0  0  0
 26 29  1  0  0  0
 29 30  1  0  0  0
 29 31  2  0  0  0
 29 32  2  0  0  0
  3  4  2  0  0  0
  4  5  1  0  0  0
  5  6  1  0  0  0
  6  7  2  0  0  0
  7  8  1  0  0  0
  8  9  1  0  0  0
 14 15  1  0  0  0
 15 16  2  0  0  0
 16 17  1  0  0  0
 17 18  2  0  0  0
 18 19  1  0  0  0
 19 20  2  0  0  0
  9  1  1  0  0  0
 20 15  1  0  0  0
 28 23  1  0  0  0
  9  5  2  0  0  0
 11 12  1  0  0  0
 21 22  1  0  0  0
  8 10  1  0  0  0
M  END
> <minimizedAffinity>
-8.57746

> <CNNscore>
0.2378278226

> <CNNaffinity>
6.0729093552

> <CNN_VS>
1.4443068504

> <CNNaffinity_variance>
0.1795063317

$$$$
[H]c1c([H])c([H])c([C@@]([H])(N([H])c2nc(N([H])c3c([H])c([H])c(S(=O)(=O)C([H])([H])[H])c([H])c3[H])nc3nc([H])n([H])c23)C([H])([H])[H])c([H])c1[H]


 32 35  0  0  0  0  0  0  0  0999 V2000
   33.9876  -14.0816   36.2533 C   0  0  0  0  0  0  0  0  0  0  0  0
   33.3894  -15.0753   35.5929 N   0  0  0  0  0  0  0  0  0  0  0  0
   33.9054  -16.3419   35.4841 C   0  0  0  0  0  0  0  0  0  0  0  0
   35.0718  -16.5987   36.0711 N   0  0  0  0  0  0  0  0  0  0  0  0
   35.7342  -15.6532   36.7529 C   0  0  0  0  0  0  0  0  0  0  0  0
   36.9005  -15.6686   37.4168 N   0  0  0  0  0  0  0  0  0  0  0  0
   37.1395  -14.4549   37.9416 C   0  0  0  0  0  0  0  0  0  0  0  0
   36.0964  -13.6806   37.5906 N   0  0  0  0  0  0  0  0  0  0  0  0
   35.2068  -14.3727   36.8594 C   0  0  0  0  0  0  0  0  0  0  0  0
   35.9933  -12.6698   37.8544 H   0  0  0  0  0  0  0  0  0  0  0  0
   33.4945  -12.7616   36.3614 N   0  0  0  0  0  0  0  0  0  0  0  0
   33.3327  -12.2332   35.4660 H   0  0  0  0  0  0  0  0  0  0  0  0
   33.7930  -10.7182   37.5716 C   0  0  0  0  0  0  0  0  0  0  0  0
   33.2026  -12.0934   37.6045 C   0  0  0  0  0  0  0  0  0  0  0  0
   31.8613  -12.2363   38.1217 C   0  0  0  0  0  0  0  0  0  0  0  0
   30.8116  -11.5311   37.5533 C   0  0  0  0  0  0  0  0  0  0  0  0
   29.5108  -11.6083   38.0007 C   0  0  0  0  0  0  0  0  0  0  0  0
   29.1930  -12.4190   39.0692 C   0  0  0  0  0  0  0  0  0  0  0  0
   30.2202  -13.1263   39.6468 C   0  0  0  0  0  0  0  0  0  0  0  0
   31.5446  -13.0402   39.1823 C   0  0  0  0  0  0  0  0  0  0  0  0
   33.2239  -17.3209   34.7478 N   0  0  0  0  0  0  0  0  0  0  0  0
   33.0996  -17.1621   33.6804 H   0  0  0  0  0  0  0  0  0  0  0  0
   32.6642  -18.5126   35.2318 C   0  0  0  0  0  0  0  0  0  0  0  0
   31.3433  -18.8582   34.8896 C   0  0  0  0  0  0  0  0  0  0  0  0
   30.7320  -19.9876   35.3505 C   0  0  0  0  0  0  0  0  0  0  0  0
   31.4157  -20.8353   36.1834 C   0  0  0  0  0  0  0  0  0  0  0  0
   32.7089  -20.5473   36.5510 C   0  0  0  0  0  0  0  0  0  0  0  0
   33.3067  -19.3852   36.0639 C   0  0  0  0  0  0  0  0  0  0  0  0
   30.5968  -22.2772   36.7547 S   0  0  0  0  0  0  0  0  0  0  0  0
   29.0695  -22.4628   35.8755 C   0  0  0  0  0  0  0  0  0  0  0  0
   30.3179  -22.1718   38.2367 O   0  0  0  0  0  0  0  0  0  0  0  0
   31.4752  -23.4512   36.4503 O   0  0  0  0  0  0  0  0  0  0  0  0
 13 14  1  0  0  0
 14 11  1  0  0  0
 11  1  1  0  0  0
  1  2  2  0  0  0
  2  3  1  0  0  0
  3 21  1  0  0  0
 21 23  1  0  0  0
 23 24  2  0  0  0
 24 25  1  0  0  0
 25 26  2  0  0  0
 26 27  1  0  0  0
 27 28  2  0  0  0
 26 29  1  0  0  0
 29 30  1  0  0  0
 29 31  2  0  0  0
 29 32  2  0  0  0
  3  4  2  0  0  0
  4  5  1  0  0  0
  5  6  1  0  0  0
  6  7  2  0  0  0
  7  8  1  0  0  0
  8  9  1  0  0  0
 14 15  1  0  0  0
 15 16  2  0  0  0
 16 17  1  0  0  0
 17 18  2  0  0  0
 18 19  1  0  0  0
 19 20  2  0  0  0
  9  1  1  0  0  0
 20 15  1  0  0  0
 28 23  1  0  0  0
  9  5  2  0  0  0
 11 12  1  0  0  0
 21 22  1  0  0  0
  8 10  1  0  0  0
M  END
> <minimizedAffinity>
-8.40735

> <CNNscore>
0.2368880659

> <CNNaffinity>
5.7248673439

> <CNN_VS>
1.3561527729

> <CNNaffinity_variance>
0.4975028932

$$$$
[H]c1c([H])c([H])c([C@@]([H])(N([H])c2nc(N([H])c3c([H])c([H])c(S(=O)(=O)C([H])([H])[H])c([H])c3[H])nc3nc([H])n([H])c23)C([H])([H])[H])c([H])c1[H]


 32 35  0  0  0  0  0  0  0  0999 V2000
   34.1091  -16.7211   35.5699 C   0  0  0  0  0  0  0  0  0  0  0  0
   35.1844  -17.4319   35.9162 N   0  0  0  0  0  0  0  0  0  0  0  0
   36.2185  -16.9377   36.6704 C   0  0  0  0  0  0  0  0  0  0  0  0
   36.1486  -15.6744   37.0831 N   0  0  0  0  0  0  0  0  0  0  0  0
   35.1010  -14.8960   36.7762 C   0  0  0  0  0  0  0  0  0  0  0  0
   34.8082  -13.6194   37.0691 N   0  0  0  0  0  0  0  0  0  0  0  0
   33.6242  -13.2896   36.5258 C   0  0  0  0  0  0  0  0  0  0  0  0
   33.1837  -14.3889   35.8867 N   0  0  0  0  0  0  0  0  0  0  0  0
   34.0571  -15.4020   36.0123 C   0  0  0  0  0  0  0  0  0  0  0  0
   32.2773  -14.4451   35.3603 H   0  0  0  0  0  0  0  0  0  0  0  0
   33.0414  -17.1936   34.7737 N   0  0  0  0  0  0  0  0  0  0  0  0
   32.2146  -16.5548   34.6487 H   0  0  0  0  0  0  0  0  0  0  0  0
   34.4079  -18.9524   33.8970 C   0  0  0  0  0  0  0  0  0  0  0  0
   33.0058  -18.4816   34.1282 C   0  0  0  0  0  0  0  0  0  0  0  0
   32.0511  -19.4391   34.6368 C   0  0  0  0  0  0  0  0  0  0  0  0
   32.4391  -20.7437   34.9011 C   0  0  0  0  0  0  0  0  0  0  0  0
   31.5819  -21.7126   35.3753 C   0  0  0  0  0  0  0  0  0  0  0  0
   30.2583  -21.4098   35.6131 C   0  0  0  0  0  0  0  0  0  0  0  0
   29.8541  -20.1215   35.3570 C   0  0  0  0  0  0  0  0  0  0  0  0
   30.7372  -19.1402   34.8729 C   0  0  0  0  0  0  0  0  0  0  0  0
   37.3251  -17.7457   36.9667 N   0  0  0  0  0  0  0  0  0  0  0  0
   38.2593  -17.2560   37.2261 H   0  0  0  0  0  0  0  0  0  0  0  0
   37.3784  -19.1474   36.9672 C   0  0  0  0  0  0  0  0  0  0  0  0
   38.2018  -19.8194   36.0444 C   0  0  0  0  0  0  0  0  0  0  0  0
   38.2761  -21.1800   35.9745 C   0  0  0  0  0  0  0  0  0  0  0  0
   37.5249  -21.9436   36.8305 C   0  0  0  0  0  0  0  0  0  0  0  0
   36.7024  -21.3403   37.7523 C   0  0  0  0  0  0  0  0  0  0  0  0
   36.6476  -19.9475   37.7993 C   0  0  0  0  0  0  0  0  0  0  0  0
   37.6476  -23.6891   36.7108 S   0  0  0  0  0  0  0  0  0  0  0  0
   38.6142  -24.2962   38.0664 C   0  0  0  0  0  0  0  0  0  0  0  0
   38.3023  -24.0825   35.4064 O   0  0  0  0  0  0  0  0  0  0  0  0
   36.2635  -24.2515   36.8142 O   0  0  0  0  0  0  0  0  0  0  0  0
 13 14  1  0  0  0
 14 11  1  0  0  0
 11  1  1  0  0  0
  1  2  2  0  0  0
  2  3  1  0  0  0
  3 21  1  0  0  0
 21 23  1  0  0  0
 23 24  2  0  0  0
 24 25  1  0  0  0
 25 26  2  0  0  0
 26 27  1  0  0  0
 27 28  2  0  0  0
 26 29  1  0  0  0
 29 30  1  0  0  0
 29 31  2  0  0  0
 29 32  2  0  0  0
  3  4  2  0  0  0
  4  5  1  0  0  0
  5  6  1  0  0  0
  6  7  2  0  0  0
  7  8  1  0  0  0
  8  9  1  0  0  0
 14 15  1  0  0  0
 15 16  2  0  0  0
 16 17  1  0  0  0
 17 18  2  0  0  0
 18 19  1  0  0  0
 19 20  2  0  0  0
  9  1  1  0  0  0
 20 15  1  0  0  0
 28 23  1  0  0  0
  9  5  2  0  0  0
 11 12  1  0  0  0
 21 22  1  0  0  0
  8 10  1  0  0  0
M  END
> <minimizedAffinity>
-6.80416

> <CNNscore>
0.2282467782

> <CNNaffinity>
5.5805048943

> <CNN_VS>
1.2737323046

> <CNNaffinity_variance>
0.4490564466

$$$$
[H]c1c([H])c([H])c([C@@]([H])(N([H])c2nc(N([H])c3c([H])c([H])c(S(=O)(=O)C([H])([H])[H])c([H])c3[H])nc3nc([H])n([H])c23)C([H])([H])[H])c([H])c1[H]


 32 35  0  0  0  0  0  0  0  0999 V2000
   33.6781  -18.0856   34.6196 C   0  0  0  0  0  0  0  0  0  0  0  0
   34.6943  -18.8527   34.2191 N   0  0  0  0  0  0  0  0  0  0  0  0
   36.0152  -18.5344   34.4096 C   0  0  0  0  0  0  0  0  0  0  0  0
   36.3042  -17.3933   35.0305 N   0  0  0  0  0  0  0  0  0  0  0  0
   35.3392  -16.5689   35.4625 C   0  0  0  0  0  0  0  0  0  0  0  0
   35.3785  -15.3890   36.1008 N   0  0  0  0  0  0  0  0  0  0  0  0
   34.1274  -14.9504   36.3204 C   0  0  0  0  0  0  0  0  0  0  0  0
   33.3054  -15.8828   35.8049 N   0  0  0  0  0  0  0  0  0  0  0  0
   34.0037  -16.8966   35.2667 C   0  0  0  0  0  0  0  0  0  0  0  0
   32.2575  -15.8239   35.8221 H   0  0  0  0  0  0  0  0  0  0  0  0
   32.3096  -18.3735   34.4156 N   0  0  0  0  0  0  0  0  0  0  0  0
   31.8593  -17.9824   33.5488 H   0  0  0  0  0  0  0  0  0  0  0  0
   30.0589  -19.0277   34.9013 C   0  0  0  0  0  0  0  0  0  0  0  0
   31.4937  -19.1580   35.3077 C   0  0  0  0  0  0  0  0  0  0  0  0
   31.9792  -20.4761   35.6452 C   0  0  0  0  0  0  0  0  0  0  0  0
   31.7003  -21.5577   34.8239 C   0  0  0  0  0  0  0  0  0  0  0  0
   32.1194  -22.8434   35.0880 C   0  0  0  0  0  0  0  0  0  0  0  0
   32.8585  -23.1119   36.2201 C   0  0  0  0  0  0  0  0  0  0  0  0
   33.1453  -22.0525   37.0474 C   0  0  0  0  0  0  0  0  0  0  0  0
   32.7125  -20.7441   36.7685 C   0  0  0  0  0  0  0  0  0  0  0  0
   37.0221  -19.3851   33.9327 N   0  0  0  0  0  0  0  0  0  0  0  0
   36.7286  -20.2205   33.3036 H   0  0  0  0  0  0  0  0  0  0  0  0
   38.4004  -19.2908   34.1758 C   0  0  0  0  0  0  0  0  0  0  0  0
   38.9162  -19.6364   35.4391 C   0  0  0  0  0  0  0  0  0  0  0  0
   40.2417  -19.5393   35.7478 C   0  0  0  0  0  0  0  0  0  0  0  0
   41.1256  -19.0881   34.8016 C   0  0  0  0  0  0  0  0  0  0  0  0
   40.6772  -18.7360   33.5506 C   0  0  0  0  0  0  0  0  0  0  0  0
   39.3164  -18.8458   33.2651 C   0  0  0  0  0  0  0  0  0  0  0  0
   42.8213  -18.9776   35.2355 S   0  0  0  0  0  0  0  0  0  0  0  0
   42.9567  -18.3597   36.8908 C   0  0  0  0  0  0  0  0  0  0  0  0
   43.5476  -18.0500   34.2882 O   0  0  0  0  0  0  0  0  0  0  0  0
   43.3953  -20.3599   35.1873 O   0  0  0  0  0  0  0  0  0  0  0  0
 13 14  1  0  0  0
 14 11  1  0  0  0
 11  1  1  0  0  0
  1  2  2  0  0  0
  2  3  1  0  0  0
  3 21  1  0  0  0
 21 23  1  0  0  0
 23 24  2  0  0  0
 24 25  1  0  0  0
 25 26  2  0  0  0
 26 27  1  0  0  0
 27 28  2  0  0  0
 26 29  1  0  0  0
 29 30  1  0  0  0
 29 31  2  0  0  0
 29 32  2  0  0  0
  3  4  2  0  0  0
  4  5  1  0  0  0
  5  6  1  0  0  0
  6  7  2  0  0  0
  7  8  1  0  0  0
  8  9  1  0  0  0
 14 15  1  0  0  0
 15 16  2  0  0  0
 16 17  1  0  0  0
 17 18  2  0  0  0
 18 19  1  0  0  0
 19 20  2  0  0  0
  9  1  1  0  0  0
 20 15  1  0  0  0
 28 23  1  0  0  0
  9  5  2  0  0  0
 11 12  1  0  0  0
 21 22  1  0  0  0
  8 10  1  0  0  0
M  END
> <minimizedAffinity>
-6.96389

> <CNNscore>
0.2280616462

> <CNNaffinity>
5.3235030174

> <CNN_VS>
1.2140868902

> <CNNaffinity_variance>
0.2802011669

$$$$
[H]Oc1c([H])c([H])c2c(c1[H])C([H])([H])C([H])([H])[C@]1([H])[C@]2([H])C([H])([H])[C@]2(C([H])([H])[H])[C@@]([H])(O[H])C([H])([H])C([H])([H])[C@]21[H]


 21 24  0  0  0  0  0  0  0  0999 V2000
   32.8675  -19.0536   36.2873 C   0  0  0  0  0  0  0  0  0  0  0  0
   32.3219  -18.9713   34.8868 C   0  0  0  0  0  0  0  0  0  0  0  0
   30.8576  -19.1079   34.7884 C   0  0  0  0  0  0  0  0  0  0  0  0
   30.6365  -20.5606   34.6740 C   0  0  0  0  0  0  0  0  0  0  0  0
   32.0329  -21.2233   34.7533 C   0  0  0  0  0  0  0  0  0  0  0  0
   31.9057  -22.5621   34.1495 C   0  0  0  0  0  0  0  0  0  0  0  0
   30.7770  -23.3719   34.7154 C   0  0  0  0  0  0  0  0  0  0  0  0
   29.8897  -22.6320   35.6223 C   0  0  0  0  0  0  0  0  0  0  0  0
   29.1196  -23.3730   36.5041 C   0  0  0  0  0  0  0  0  0  0  0  0
   28.2575  -22.7733   37.3923 C   0  0  0  0  0  0  0  0  0  0  0  0
   27.4977  -23.5634   38.2663 O   0  0  0  0  0  0  0  0  0  0  0  0
   28.1763  -21.4103   37.3856 C   0  0  0  0  0  0  0  0  0  0  0  0
   28.9342  -20.6678   36.5168 C   0  0  0  0  0  0  0  0  0  0  0  0
   29.7958  -21.2296   35.6265 C   0  0  0  0  0  0  0  0  0  0  0  0
   32.7765  -20.1947   34.0517 C   0  0  0  0  0  0  0  0  0  0  0  0
   34.2120  -20.0617   34.1139 C   0  0  0  0  0  0  0  0  0  0  0  0
   34.4269  -18.5400   34.0563 C   0  0  0  0  0  0  0  0  0  0  0  0
   33.0137  -17.9294   34.1138 C   0  0  0  0  0  0  0  0  0  0  0  0
   33.0254  -16.6816   34.6886 O   0  0  0  0  0  0  0  0  0  0  0  0
   26.8654  -23.1457   38.9194 H   0  0  0  0  0  0  0  0  0  0  0  0
   32.2459  -16.1786   34.3018 H   0  0  0  0  0  0  0  0  0  0  0  0
  2  1  1  0  0  0
  2  3  1  0  0  0
  3  4  1  0  0  0
  4  5  1  0  0  0
  5  6  1  0  0  0
  6  7  1  0  0  0
  7  8  1  0  0  0
  8  9  2  0  0  0
  9 10  1  0  0  0
 10 11  1  0  0  0
 10 12  2  0  0  0
 12 13  1  0  0  0
 13 14  2  0  0  0
  5 15  1  0  0  0
 15 16  1  0  0  0
 16 17  1  0  0  0
 17 18  1  0  0  0
 18 19  1  0  0  0
 15  2  1  0  0  0
 18  2  1  0  0  0
 14  4  1  0  0  0
 14  8  1  0  0  0
 11 20  1  0  0  0
 19 21  1  0  0  0
M  END
> <minimizedAffinity>
-5.43195

> <CNNscore>
0.7150011063

> <CNNaffinity>
4.1953568459

> <CNN_VS>
2.9996848106

> <CNNaffinity_variance>
0.3179145157

$$$$
[H]Oc1c([H])c([H])c2c(c1[H])C([H])([H])C([H])([H])[C@]1([H])[C@]2([H])C([H])([H])[C@]2(C([H])([H])[H])[C@@]([H])(O[H])C([H])([H])C([H])([H])[C@]21[H]


 21 24  0  0  0  0  0  0  0  0999 V2000
   35.0872  -17.6188   36.6489 C   0  0  0  0  0  0  0  0  0  0  0  0
   35.6415  -18.5752   35.6272 C   0  0  0  0  0  0  0  0  0  0  0  0
   34.6687  -19.0263   34.6159 C   0  0  0  0  0  0  0  0  0  0  0  0
   34.0372  -20.2109   35.2243 C   0  0  0  0  0  0  0  0  0  0  0  0
   34.6707  -20.3726   36.6271 C   0  0  0  0  0  0  0  0  0  0  0  0
   34.4565  -21.7731   37.0342 C   0  0  0  0  0  0  0  0  0  0  0  0
   33.0297  -22.2213   36.9179 C   0  0  0  0  0  0  0  0  0  0  0  0
   32.1414  -21.2624   36.2480 C   0  0  0  0  0  0  0  0  0  0  0  0
   30.7812  -21.3845   36.4815 C   0  0  0  0  0  0  0  0  0  0  0  0
   29.8681  -20.5359   35.9005 C   0  0  0  0  0  0  0  0  0  0  0  0
   28.5009  -20.6971   36.1657 O   0  0  0  0  0  0  0  0  0  0  0  0
   30.3392  -19.5550   35.0757 C   0  0  0  0  0  0  0  0  0  0  0  0
   31.6835  -19.4257   34.8381 C   0  0  0  0  0  0  0  0  0  0  0  0
   32.6122  -20.2481   35.3966 C   0  0  0  0  0  0  0  0  0  0  0  0
   36.0088  -19.9273   36.2888 C   0  0  0  0  0  0  0  0  0  0  0  0
   36.9839  -19.5081   37.2663 C   0  0  0  0  0  0  0  0  0  0  0  0
   37.7468  -18.3857   36.5430 C   0  0  0  0  0  0  0  0  0  0  0  0
   36.9952  -18.1767   35.2146 C   0  0  0  0  0  0  0  0  0  0  0  0
   37.1156  -16.8845   34.7638 O   0  0  0  0  0  0  0  0  0  0  0  0
   27.8216  -20.0898   35.7526 H   0  0  0  0  0  0  0  0  0  0  0  0
   37.0302  -16.9190   33.7629 H   0  0  0  0  0  0  0  0  0  0  0  0
  2  1  1  0  0  0
  2  3  1  0  0  0
  3  4  1  0  0  0
  4  5  1  0  0  0
  5  6  1  0  0  0
  6  7  1  0  0  0
  7  8  1  0  0  0
  8  9  2  0  0  0
  9 10  1  0  0  0
 10 11  1  0  0  0
 10 12  2  0  0  0
 12 13  1  0  0  0
 13 14  2  0  0  0
  5 15  1  0  0  0
 15 16  1  0  0  0
 16 17  1  0  0  0
 17 18  1  0  0  0
 18 19  1  0  0  0
 15  2  1  0  0  0
 18  2  1  0  0  0
 14  4  1  0  0  0
 14  8  1  0  0  0
 11 20  1  0  0  0
 19 21  1  0  0  0
M  END
> <minimizedAffinity>
-5.16586

> <CNNscore>
0.6607849598

> <CNNaffinity>
4.3308286667

> <CNN_VS>
2.8617465496

> <CNNaffinity_variance>
0.1436633170

$$$$
[H]Oc1c([H])c([H])c2c(c1[H])C([H])([H])C([H])([H])[C@]1([H])[C@]2([H])C([H])([H])[C@]2(C([H])([H])[H])[C@@]([H])(O[H])C([H])([H])C([H])([H])[C@]21[H]


 21 24  0  0  0  0  0  0  0  0999 V2000
   34.8240  -19.5089   34.4527 C   0  0  0  0  0  0  0  0  0  0  0  0
   34.3245  -18.9779   35.7697 C   0  0  0  0  0  0  0  0  0  0  0  0
   33.9147  -20.0138   36.7348 C   0  0  0  0  0  0  0  0  0  0  0  0
   32.4965  -20.2617   36.4192 C   0  0  0  0  0  0  0  0  0  0  0  0
   32.1502  -19.3513   35.2165 C   0  0  0  0  0  0  0  0  0  0  0  0
   30.6846  -19.1932   35.2080 C   0  0  0  0  0  0  0  0  0  0  0  0
   29.9395  -20.4937   35.2649 C   0  0  0  0  0  0  0  0  0  0  0  0
   30.7836  -21.6707   35.5091 C   0  0  0  0  0  0  0  0  0  0  0  0
   30.2719  -22.9067   35.1484 C   0  0  0  0  0  0  0  0  0  0  0  0
   30.9845  -24.0679   35.3369 C   0  0  0  0  0  0  0  0  0  0  0  0
   30.4265  -25.2965   34.9566 O   0  0  0  0  0  0  0  0  0  0  0  0
   32.2266  -23.9740   35.8961 C   0  0  0  0  0  0  0  0  0  0  0  0
   32.7420  -22.7555   36.2566 C   0  0  0  0  0  0  0  0  0  0  0  0
   32.0636  -21.5890   36.0837 C   0  0  0  0  0  0  0  0  0  0  0  0
   32.9849  -18.2225   35.5803 C   0  0  0  0  0  0  0  0  0  0  0  0
   33.3740  -17.1843   34.6568 C   0  0  0  0  0  0  0  0  0  0  0  0
   34.7956  -16.8196   35.1162 C   0  0  0  0  0  0  0  0  0  0  0  0
   35.1380  -17.8388   36.2195 C   0  0  0  0  0  0  0  0  0  0  0  0
   36.4900  -18.0733   36.2888 O   0  0  0  0  0  0  0  0  0  0  0  0
   30.9293  -26.1518   35.0857 H   0  0  0  0  0  0  0  0  0  0  0  0
   36.6882  -18.3404   37.2373 H   0  0  0  0  0  0  0  0  0  0  0  0
  2  1  1  0  0  0
  2  3  1  0  0  0
  3  4  1  0  0  0
  4  5  1  0  0  0
  5  6  1  0  0  0
  6  7  1  0  0  0
  7  8  1  0  0  0
  8  9  2  0  0  0
  9 10  1  0  0  0
 10 11  1  0  0  0
 10 12  2  0  0  0
 12 13  1  0  0  0
 13 14  2  0  0  0
  5 15  1  0  0  0
 15 16  1  0  0  0
 16 17  1  0  0  0
 17 18  1  0  0  0
 18 19  1  0  0  0
 15  2  1  0  0  0
 18  2  1  0  0  0
 14  4  1  0  0  0
 14  8  1  0  0  0
 11 20  1  0  0  0
 19 21  1  0  0  0
M  END
> <minimizedAffinity>
-4.89108

> <CNNscore>
0.6266872883

> <CNNaffinity>
4.1885948181

> <CNN_VS>
2.6249392033

> <CNNaffinity_variance>
0.2440423518

$$$$
[H]Oc1c([H])c([H])c2c(c1[H])C([H])([H])C([H])([H])[C@]1([H])[C@]2([H])C([H])([H])[C@]2(C([H])([H])[H])[C@@]([H])(O[H])C([H])([H])C([H])([H])[C@]21[H]


 21 24  0  0  0  0  0  0  0  0999 V2000
   32.6209  -20.7255   34.0465 C   0  0  0  0  0  0  0  0  0  0  0  0
   32.2375  -19.6779   35.0572 C   0  0  0  0  0  0  0  0  0  0  0  0
   33.0266  -18.4352   34.9843 C   0  0  0  0  0  0  0  0  0  0  0  0
   34.1894  -18.6933   35.8524 C   0  0  0  0  0  0  0  0  0  0  0  0
   34.0319  -20.1412   36.3757 C   0  0  0  0  0  0  0  0  0  0  0  0
   34.8548  -20.2474   37.5942 C   0  0  0  0  0  0  0  0  0  0  0  0
   36.2684  -19.7819   37.4071 C   0  0  0  0  0  0  0  0  0  0  0  0
   36.5314  -19.1324   36.1163 C   0  0  0  0  0  0  0  0  0  0  0  0
   37.8483  -19.0746   35.6895 C   0  0  0  0  0  0  0  0  0  0  0  0
   38.1972  -18.4868   34.4961 C   0  0  0  0  0  0  0  0  0  0  0  0
   39.5429  -18.4515   34.1046 O   0  0  0  0  0  0  0  0  0  0  0  0
   37.2014  -17.9532   33.7292 C   0  0  0  0  0  0  0  0  0  0  0  0
   35.8949  -18.0051   34.1427 C   0  0  0  0  0  0  0  0  0  0  0  0
   35.5167  -18.5789   35.3168 C   0  0  0  0  0  0  0  0  0  0  0  0
   32.5863  -20.1502   36.4912 C   0  0  0  0  0  0  0  0  0  0  0  0
   31.7988  -21.3552   36.5913 C   0  0  0  0  0  0  0  0  0  0  0  0
   30.5141  -21.0005   35.8239 C   0  0  0  0  0  0  0  0  0  0  0  0
   30.7774  -19.6100   35.2154 C   0  0  0  0  0  0  0  0  0  0  0  0
   30.0684  -19.4246   34.0533 O   0  0  0  0  0  0  0  0  0  0  0  0
   39.8163  -18.0284   33.2402 H   0  0  0  0  0  0  0  0  0  0  0  0
   29.9108  -18.4357   33.9662 H   0  0  0  0  0  0  0  0  0  0  0  0
  2  1  1  0  0  0
  2  3  1  0  0  0
  3  4  1  0  0  0
  4  5  1  0  0  0
  5  6  1  0  0  0
  6  7  1  0  0  0
  7  8  1  0  0  0
  8  9  2  0  0  0
  9 10  1  0  0  0
 10 11  1  0  0  0
 10 12  2  0  0  0
 12 13  1  0  0  0
 13 14  2  0  0  0
  5 15  1  0  0  0
 15 16  1  0  0  0
 16 17  1  0  0  0
 17 18  1  0  0  0
 18 19  1  0  0  0
 15  2  1  0  0  0
 18  2  1  0  0  0
 14  4  1  0  0  0
 14  8  1  0  0  0
 11 20  1  0  0  0
 19 21  1  0  0  0
M  END
> <minimizedAffinity>
-6.03107

> <CNNscore>
0.6012778282

> <CNNaffinity>
4.3559174538

> <CNN_VS>
2.6191165447

> <CNNaffinity_variance>
0.2190173566

$$$$
[H]Oc1c([H])c([H])c2c(c1[H])C([H])([H])C([H])([H])[C@]1([H])[C@]2([H])C([H])([H])[C@]2(C([H])([H])[H])[C@@]([H])(O[H])C([H])([H])C([H])([H])[C@]21[H]


 21 24  0  0  0  0  0  0  0  0999 V2000
   31.9264  -19.1671   36.1630 C   0  0  0  0  0  0  0  0  0  0  0  0
   32.8943  -20.3193   36.1996 C   0  0  0  0  0  0  0  0  0  0  0  0
   34.1012  -20.0829   37.0120 C   0  0  0  0  0  0  0  0  0  0  0  0
   35.0505  -19.4551   36.0755 C   0  0  0  0  0  0  0  0  0  0  0  0
   34.3070  -19.3177   34.7252 C   0  0  0  0  0  0  0  0  0  0  0  0
   35.3386  -19.1827   33.6808 C   0  0  0  0  0  0  0  0  0  0  0  0
   36.3496  -18.1130   33.9694 C   0  0  0  0  0  0  0  0  0  0  0  0
   36.2499  -17.5249   35.3117 C   0  0  0  0  0  0  0  0  0  0  0  0
   36.8223  -16.2780   35.5043 C   0  0  0  0  0  0  0  0  0  0  0  0
   36.7825  -15.6441   36.7242 C   0  0  0  0  0  0  0  0  0  0  0  0
   37.3754  -14.3823   36.8727 O   0  0  0  0  0  0  0  0  0  0  0  0
   36.1567  -16.2809   37.7573 C   0  0  0  0  0  0  0  0  0  0  0  0
   35.5871  -17.5152   37.5769 C   0  0  0  0  0  0  0  0  0  0  0  0
   35.6089  -18.1688   36.3840 C   0  0  0  0  0  0  0  0  0  0  0  0
   33.5316  -20.5407   34.8047 C   0  0  0  0  0  0  0  0  0  0  0  0
   32.3636  -20.8016   33.9985 C   0  0  0  0  0  0  0  0  0  0  0  0
   31.4578  -21.6094   34.9430 C   0  0  0  0  0  0  0  0  0  0  0  0
   32.1815  -21.6011   36.3029 C   0  0  0  0  0  0  0  0  0  0  0  0
   31.2948  -21.6979   37.3478 O   0  0  0  0  0  0  0  0  0  0  0  0
   37.3567  -13.9055   37.7520 H   0  0  0  0  0  0  0  0  0  0  0  0
   31.7897  -22.1332   38.1067 H   0  0  0  0  0  0  0  0  0  0  0  0
  2  1  1  0  0  0
  2  3  1  0  0  0
  3  4  1  0  0  0
  4  5  1  0  0  0
  5  6  1  0  0  0
  6  7  1  0  0  0
  7  8  1  0  0  0
  8  9  2  0  0  0
  9 10  1  0  0  0
 10 11  1  0  0  0
 10 12  2  0  0  0
 12 13  1  0  0  0
 13 14  2  0  0  0
  5 15  1  0  0  0
 15 16  1  0  0  0
 16 17  1  0  0  0
 17 18  1  0  0  0
 18 19  1  0  0  0
 15  2  1  0  0  0
 18  2  1  0  0  0
 14  4  1  0  0  0
 14  8  1  0  0  0
 11 20  1  0  0  0
 19 21  1  0  0  0
M  END
> <minimizedAffinity>
-4.77505

> <CNNscore>
0.5861630440

> <CNNaffinity>
4.3609766960

> <CNN_VS>
2.5562434196

> <CNNaffinity_variance>
0.0523243062

$$$$
[H]Oc1c([H])c([H])c2c(c1[H])C([H])([H])C([H])([H])[C@]1([H])[C@]2([H])C([H])([H])[C@]2(C([H])([H])[H])[C@@]([H])(O[H])C([H])([H])C([H])([H])[C@]21[H]


 21 24  0  0  0  0  0  0  0  0999 V2000
   38.0182  -17.9098   36.6813 C   0  0  0  0  0  0  0  0  0  0  0  0
   38.2544  -19.1449   35.8539 C   0  0  0  0  0  0  0  0  0  0  0  0
   37.2871  -19.3464   34.7601 C   0  0  0  0  0  0  0  0  0  0  0  0
   36.1882  -20.1050   35.3840 C   0  0  0  0  0  0  0  0  0  0  0  0
   36.5680  -20.2798   36.8742 C   0  0  0  0  0  0  0  0  0  0  0  0
   35.7872  -21.4218   37.3833 C   0  0  0  0  0  0  0  0  0  0  0  0
   34.3173  -21.3177   37.1027 C   0  0  0  0  0  0  0  0  0  0  0  0
   33.9422  -20.2084   36.2161 C   0  0  0  0  0  0  0  0  0  0  0  0
   32.6258  -19.7784   36.2569 C   0  0  0  0  0  0  0  0  0  0  0  0
   32.1763  -18.7475   35.4651 C   0  0  0  0  0  0  0  0  0  0  0  0
   30.8352  -18.3459   35.5400 O   0  0  0  0  0  0  0  0  0  0  0  0
   33.0703  -18.1480   34.6250 C   0  0  0  0  0  0  0  0  0  0  0  0
   34.3754  -18.5662   34.5771 C   0  0  0  0  0  0  0  0  0  0  0  0
   34.8515  -19.5821   35.3465 C   0  0  0  0  0  0  0  0  0  0  0  0
   38.0001  -20.4213   36.6946 C   0  0  0  0  0  0  0  0  0  0  0  0
   38.9604  -20.2549   37.7587 C   0  0  0  0  0  0  0  0  0  0  0  0
   40.1668  -19.6194   37.0474 C   0  0  0  0  0  0  0  0  0  0  0  0
   39.6899  -19.3462   35.6083 C   0  0  0  0  0  0  0  0  0  0  0  0
   40.3470  -18.2749   35.0531 O   0  0  0  0  0  0  0  0  0  0  0  0
   30.4897  -17.5982   34.9722 H   0  0  0  0  0  0  0  0  0  0  0  0
   40.3535  -18.4241   34.0591 H   0  0  0  0  0  0  0  0  0  0  0  0
  2  1  1  0  0  0
  2  3  1  0  0  0
  3  4  1  0  0  0
  4  5  1  0  0  0
  5  6  1  0  0  0
  6  7  1  0  0  0
  7  8  1  0  0  0
  8  9  2  0  0  0
  9 10  1  0  0  0
 10 11  1  0  0  0
 10 12  2  0  0  0
 12 13  1  0  0  0
 13 14  2  0  0  0
  5 15  1  0  0  0
 15 16  1  0  0  0
 16 17  1  0  0  0
 17 18  1  0  0  0
 18 19  1  0  0  0
 15  2  1  0  0  0
 18  2  1  0  0  0
 14  4  1  0  0  0
 14  8  1  0  0  0
 11 20  1  0  0  0
 19 21  1  0  0  0
M  END
> <minimizedAffinity>
-5.13262

> <CNNscore>
0.5654242635

> <CNNaffinity>
4.2687764168

> <CNN_VS>
2.4136698246

> <CNNaffinity_variance>
0.0505106822

$$$$
[H]Oc1c([H])c([H])c2c(c1[H])C([H])([H])C([H])([H])[C@]1([H])[C@]2([H])C([H])([H])[C@]2(C([H])([H])[H])[C@@]([H])(O[H])C([H])([H])C([H])([H])[C@]21[H]


 21 24  0  0  0  0  0  0  0  0999 V2000
   33.1953  -18.2329   35.6916 C   0  0  0  0  0  0  0  0  0  0  0  0
   33.8942  -19.4369   35.1191 C   0  0  0  0  0  0  0  0  0  0  0  0
   32.9969  -20.4430   34.5229 C   0  0  0  0  0  0  0  0  0  0  0  0
   32.6381  -21.3214   35.6506 C   0  0  0  0  0  0  0  0  0  0  0  0
   33.3400  -20.7380   36.9004 C   0  0  0  0  0  0  0  0  0  0  0  0
   33.4260  -21.8272   37.8901 C   0  0  0  0  0  0  0  0  0  0  0  0
   32.1152  -22.5089   38.1488 C   0  0  0  0  0  0  0  0  0  0  0  0
   31.0294  -22.1072   37.2450 C   0  0  0  0  0  0  0  0  0  0  0  0
   29.7305  -22.3357   37.6697 C   0  0  0  0  0  0  0  0  0  0  0  0
   28.6456  -21.9959   36.8957 C   0  0  0  0  0  0  0  0  0  0  0  0
   27.3489  -22.2460   37.3663 O   0  0  0  0  0  0  0  0  0  0  0  0
   28.8808  -21.4192   35.6805 C   0  0  0  0  0  0  0  0  0  0  0  0
   30.1625  -21.1888   35.2510 C   0  0  0  0  0  0  0  0  0  0  0  0
   31.2566  -21.5129   35.9918 C   0  0  0  0  0  0  0  0  0  0  0  0
   34.5487  -20.2748   36.2462 C   0  0  0  0  0  0  0  0  0  0  0  0
   35.4534  -19.3115   36.8256 C   0  0  0  0  0  0  0  0  0  0  0  0
   35.9494  -18.5170   35.6057 C   0  0  0  0  0  0  0  0  0  0  0  0
   35.1249  -19.0453   34.4165 C   0  0  0  0  0  0  0  0  0  0  0  0
   34.9673  -18.0864   33.4453 O   0  0  0  0  0  0  0  0  0  0  0  0
   26.5474  -22.0058   36.8179 H   0  0  0  0  0  0  0  0  0  0  0  0
   34.8554  -18.5743   32.5737 H   0  0  0  0  0  0  0  0  0  0  0  0
  2  1  1  0  0  0
  2  3  1  0  0  0
  3  4  1  0  0  0
  4  5  1  0  0  0
  5  6  1  0  0  0
  6  7  1  0  0  0
  7  8  1  0  0  0
  8  9  2  0  0  0
  9 10  1  0  0  0
 10 11  1  0  0  0
 10 12  2  0  0  0
 12 13  1  0  0  0
 13 14  2  0  0  0
  5 15  1  0  0  0
 15 16  1  0  0  0
 16 17  1  0  0  0
 17 18  1  0  0  0
 18 19  1  0  0  0
 15  2  1  0  0  0
 18  2  1  0  0  0
 14  4  1  0  0  0
 14  8  1  0  0  0
 11 20  1  0  0  0
 19 21  1  0  0  0
M  END
> <minimizedAffinity>
-4.70815

> <CNNscore>
0.5606796145

> <CNNaffinity>
3.9865314960

> <CNN_VS>
2.2351670265

> <CNNaffinity_variance>
0.2536603808

$$$$
[H]Oc1c([H])c([H])c2c(c1[H])C([H])([H])C([H])([H])[C@]1([H])[C@]2([H])C([H])([H])[C@]2(C([H])([H])[H])[C@@]([H])(O[H])C([H])([H])C([H])([H])[C@]21[H]


 21 24  0  0  0  0  0  0  0  0999 V2000
   33.7695  -19.8779   34.1385 C   0  0  0  0  0  0  0  0  0  0  0  0
   33.4149  -19.3027   35.4836 C   0  0  0  0  0  0  0  0  0  0  0  0
   34.5624  -19.0937   36.3848 C   0  0  0  0  0  0  0  0  0  0  0  0
   34.7059  -20.3788   37.0920 C   0  0  0  0  0  0  0  0  0  0  0  0
   33.6184  -21.3182   36.5175 C   0  0  0  0  0  0  0  0  0  0  0  0
   33.4029  -22.3828   37.5143 C   0  0  0  0  0  0  0  0  0  0  0  0
   34.6676  -23.0580   37.9554 C   0  0  0  0  0  0  0  0  0  0  0  0
   35.8999  -22.4231   37.4698 C   0  0  0  0  0  0  0  0  0  0  0  0
   37.0497  -23.1960   37.4523 C   0  0  0  0  0  0  0  0  0  0  0  0
   38.2532  -22.6930   37.0161 C   0  0  0  0  0  0  0  0  0  0  0  0
   39.3910  -23.5121   37.0161 O   0  0  0  0  0  0  0  0  0  0  0  0
   38.2902  -21.3950   36.5940 C   0  0  0  0  0  0  0  0  0  0  0  0
   37.1577  -20.6218   36.6074 C   0  0  0  0  0  0  0  0  0  0  0  0
   35.9527  -21.0885   37.0324 C   0  0  0  0  0  0  0  0  0  0  0  0
   32.5878  -20.3191   36.3104 C   0  0  0  0  0  0  0  0  0  0  0  0
   31.4433  -20.5155   35.4539 C   0  0  0  0  0  0  0  0  0  0  0  0
   31.2052  -19.1173   34.8591 C   0  0  0  0  0  0  0  0  0  0  0  0
   32.3858  -18.2606   35.3546 C   0  0  0  0  0  0  0  0  0  0  0  0
   32.6811  -17.2490   34.4731 O   0  0  0  0  0  0  0  0  0  0  0  0
   40.2751  -23.1644   36.7025 H   0  0  0  0  0  0  0  0  0  0  0  0
   33.0899  -16.5062   35.0129 H   0  0  0  0  0  0  0  0  0  0  0  0
  2  1  1  0  0  0
  2  3  1  0  0  0
  3  4  1  0  0  0
  4  5  1  0  0  0
  5  6  1  0  0  0
  6  7  1  0  0  0
  7  8  1  0  0  0
  8  9  2  0  0  0
  9 10  1  0  0  0
 10 11  1  0  0  0
 10 12  2  0  0  0
 12 13  1  0  0  0
 13 14  2  0  0  0
  5 15  1  0  0  0
 15 16  1  0  0  0
 16 17  1  0  0  0
 17 18  1  0  0  0
 18 19  1  0  0  0
 15  2  1  0  0  0
 18  2  1  0  0  0
 14  4  1  0  0  0
 14  8  1  0  0  0
 11 20  1  0  0  0
 19 21  1  0  0  0
M  END
> <minimizedAffinity>
-4.21353

> <CNNscore>
0.5562925935

> <CNNaffinity>
4.1008915901

> <CNN_VS>
2.2812955379

> <CNNaffinity_variance>
0.0471376553

$$$$
[H]Oc1c([H])c([H])c2c(c1[H])C([H])([H])C([H])([H])[C@]1([H])[C@]2([H])C([H])([H])[C@]2(C([H])([H])[H])[C@@]([H])(O[H])C([H])([H])C([H])([H])[C@]21[H]


 21 24  0  0  0  0  0  0  0  0999 V2000
   33.8768  -20.8470   38.5012 C   0  0  0  0  0  0  0  0  0  0  0  0
   34.4770  -21.2843   37.1919 C   0  0  0  0  0  0  0  0  0  0  0  0
   35.6298  -20.4817   36.7454 C   0  0  0  0  0  0  0  0  0  0  0  0
   35.0266  -19.3780   35.9772 C   0  0  0  0  0  0  0  0  0  0  0  0
   33.4940  -19.5802   36.0505 C   0  0  0  0  0  0  0  0  0  0  0  0
   32.9099  -18.8363   34.9198 C   0  0  0  0  0  0  0  0  0  0  0  0
   33.3667  -17.4099   34.8387 C   0  0  0  0  0  0  0  0  0  0  0  0
   34.4468  -17.0609   35.7709 C   0  0  0  0  0  0  0  0  0  0  0  0
   34.6197  -15.7194   36.0710 C   0  0  0  0  0  0  0  0  0  0  0  0
   35.6032  -15.2913   36.9320 C   0  0  0  0  0  0  0  0  0  0  0  0
   35.7412  -13.9234   37.2063 O   0  0  0  0  0  0  0  0  0  0  0  0
   36.4179  -16.2325   37.4931 C   0  0  0  0  0  0  0  0  0  0  0  0
   36.2550  -17.5627   37.2025 C   0  0  0  0  0  0  0  0  0  0  0  0
   35.2928  -18.0188   36.3558 C   0  0  0  0  0  0  0  0  0  0  0  0
   33.4877  -21.0302   36.0267 C   0  0  0  0  0  0  0  0  0  0  0  0
   32.3595  -21.8325   36.4337 C   0  0  0  0  0  0  0  0  0  0  0  0
   33.0179  -23.0635   37.0789 C   0  0  0  0  0  0  0  0  0  0  0  0
   34.5262  -22.7509   37.1002 C   0  0  0  0  0  0  0  0  0  0  0  0
   35.1588  -23.3838   38.1427 O   0  0  0  0  0  0  0  0  0  0  0  0
   36.4503  -13.5928   37.8298 H   0  0  0  0  0  0  0  0  0  0  0  0
   36.1119  -23.5274   37.8574 H   0  0  0  0  0  0  0  0  0  0  0  0
  2  1  1  0  0  0
  2  3  1  0  0  0
  3  4  1  0  0  0
  4  5  1  0  0  0
  5  6  1  0  0  0
  6  7  1  0  0  0
  7  8  1  0  0  0
  8  9  2  0  0  0
  9 10  1  0  0  0
 10 11  1  0  0  0
 10 12  2  0  0  0
 12 13  1  0  0  0
 13 14  2  0  0  0
  5 15  1  0  0  0
 15 16  1  0  0  0
 16 17  1  0  0  0
 17 18  1  0  0  0
 18 19  1  0  0  0
 15  2  1  0  0  0
 18  2  1  0  0  0
 14  4  1  0  0  0
 14  8  1  0  0  0
 11 20  1  0  0  0
 19 21  1  0  0  0
M  END
> <minimizedAffinity>
-5.44071

> <CNNscore>
0.5559123755

> <CNNaffinity>
4.1089534760

> <CNN_VS>
2.2842180729

> <CNNaffinity_variance>
0.1339253634

$$$$
[H]Oc1c([H])c([H])c2c(c1[H])C([H])([H])C([H])([H])[C@]1([H])[C@]2([H])C([H])([H])[C@]2(C([H])([H])[H])C(=O)C([H])([H])C([H])([H])[C@]21[H]


 20 23  0  0  0  0  0  0  0  0999 V2000
   33.2746  -22.4510   38.9434 C   0  0  0  0  0  0  0  0  0  0  0  0
   32.6770  -23.4321   37.9954 C   0  0  0  0  0  0  0  0  0  0  0  0
   33.0209  -23.2281   36.5762 C   0  0  0  0  0  0  0  0  0  0  0  0
   31.9830  -22.3329   36.0623 C   0  0  0  0  0  0  0  0  0  0  0  0
   30.9848  -22.0756   37.2233 C   0  0  0  0  0  0  0  0  0  0  0  0
   29.6908  -21.7710   36.5517 C   0  0  0  0  0  0  0  0  0  0  0  0
   29.8613  -20.6487   35.5873 C   0  0  0  0  0  0  0  0  0  0  0  0
   31.2425  -20.1832   35.3703 C   0  0  0  0  0  0  0  0  0  0  0  0
   31.4246  -18.8723   34.9209 C   0  0  0  0  0  0  0  0  0  0  0  0
   32.6956  -18.3882   34.6990 C   0  0  0  0  0  0  0  0  0  0  0  0
   32.8698  -17.0790   34.2505 O   0  0  0  0  0  0  0  0  0  0  0  0
   33.7758  -19.2217   34.9290 C   0  0  0  0  0  0  0  0  0  0  0  0
   33.5762  -20.5100   35.3717 C   0  0  0  0  0  0  0  0  0  0  0  0
   32.3357  -21.0084   35.5971 C   0  0  0  0  0  0  0  0  0  0  0  0
   31.1325  -23.3192   37.9332 C   0  0  0  0  0  0  0  0  0  0  0  0
   30.8300  -23.5238   39.3408 C   0  0  0  0  0  0  0  0  0  0  0  0
   31.6977  -24.7676   39.6367 C   0  0  0  0  0  0  0  0  0  0  0  0
   32.7444  -24.7598   38.5719 C   0  0  0  0  0  0  0  0  0  0  0  0
   33.4794  -25.6669   38.2673 O   0  0  0  0  0  0  0  0  0  0  0  0
   32.9685  -16.3478   34.9302 H   0  0  0  0  0  0  0  0  0  0  0  0
  2  1  1  0  0  0
  2  3  1  0  0  0
  3  4  1  0  0  0
  4  5  1  0  0  0
  5  6  1  0  0  0
  6  7  1  0  0  0
  7  8  1  0  0  0
  8  9  2  0  0  0
  9 10  1  0  0  0
 10 11  1  0  0  0
 10 12  2  0  0  0
 12 13  1  0  0  0
 13 14  2  0  0  0
  5 15  1  0  0  0
 15 16  1  0  0  0
 16 17  1  0  0  0
 17 18  1  0  0  0
 18 19  2  0  0  0
 15  2  1  0  0  0
 18  2  1  0  0  0
 14  4  1  0  0  0
 14  8  1  0  0  0
 11 20  1  0  0  0
M  END
> <minimizedAffinity>
-4.11748

> <CNNscore>
0.6909434199

> <CNNaffinity>
3.9530925751

> <CNN_VS>
2.7313632965

> <CNNaffinity_variance>
0.2155239582

$$$$
[H]Oc1c([H])c([H])c2c(c1[H])C([H])([H])C([H])([H])[C@]1([H])[C@]2([H])C([H])([H])[C@]2(C([H])([H])[H])C(=O)C([H])([H])C([H])([H])[C@]21[H]


 20 23  0  0  0  0  0  0  0  0999 V2000
   30.8811  -22.1355   37.4859 C   0  0  0  0  0  0  0  0  0  0  0  0
   31.0030  -22.4376   36.0324 C   0  0  0  0  0  0  0  0  0  0  0  0
   32.3784  -22.4373   35.5011 C   0  0  0  0  0  0  0  0  0  0  0  0
   32.6177  -21.0570   35.0767 C   0  0  0  0  0  0  0  0  0  0  0  0
   31.3034  -20.2681   35.3232 C   0  0  0  0  0  0  0  0  0  0  0  0
   31.3344  -19.1581   34.3306 C   0  0  0  0  0  0  0  0  0  0  0  0
   32.5931  -18.3742   34.4719 C   0  0  0  0  0  0  0  0  0  0  0  0
   33.5934  -18.9154   35.4089 C   0  0  0  0  0  0  0  0  0  0  0  0
   34.5126  -18.0226   35.9671 C   0  0  0  0  0  0  0  0  0  0  0  0
   35.4710  -18.4775   36.8466 C   0  0  0  0  0  0  0  0  0  0  0  0
   36.3850  -17.5809   37.3998 O   0  0  0  0  0  0  0  0  0  0  0  0
   35.5016  -19.8248   37.1606 C   0  0  0  0  0  0  0  0  0  0  0  0
   34.5877  -20.6887   36.6006 C   0  0  0  0  0  0  0  0  0  0  0  0
   33.6358  -20.2647   35.7332 C   0  0  0  0  0  0  0  0  0  0  0  0
   30.3569  -21.3390   35.1506 C   0  0  0  0  0  0  0  0  0  0  0  0
   29.0103  -21.3661   35.6990 C   0  0  0  0  0  0  0  0  0  0  0  0
   28.7390  -22.8873   35.7025 C   0  0  0  0  0  0  0  0  0  0  0  0
   30.0949  -23.5127   35.6872 C   0  0  0  0  0  0  0  0  0  0  0  0
   30.3630  -24.6628   35.4400 O   0  0  0  0  0  0  0  0  0  0  0  0
   36.1504  -17.1277   38.2635 H   0  0  0  0  0  0  0  0  0  0  0  0
  2  1  1  0  0  0
  2  3  1  0  0  0
  3  4  1  0  0  0
  4  5  1  0  0  0
  5  6  1  0  0  0
  6  7  1  0  0  0
  7  8  1  0  0  0
  8  9  2  0  0  0
  9 10  1  0  0  0
 10 11  1  0  0  0
 10 12  2  0  0  0
 12 13  1  0  0  0
 13 14  2  0  0  0
  5 15  1  0  0  0
 15 16  1  0  0  0
 16 17  1  0  0  0
 17 18  1  0  0  0
 18 19  2  0  0  0
 15  2  1  0  0  0
 18  2  1  0  0  0
 14  4  1  0  0  0
 14  8  1  0  0  0
 11 20  1  0  0  0
M  END
> <minimizedAffinity>
-5.20136

> <CNNscore>
0.6214351654

> <CNNaffinity>
4.1386904716

> <CNN_VS>
2.5719277859

> <CNNaffinity_variance>
0.1842716187

$$$$
[H]Oc1c([H])c([H])c2c(c1[H])C([H])([H])C([H])([H])[C@]1([H])[C@]2([H])C([H])([H])[C@]2(C([H])([H])[H])C(=O)C([H])([H])C([H])([H])[C@]21[H]


 20 23  0  0  0  0  0  0  0  0999 V2000
   32.1307  -18.7233   35.8041 C   0  0  0  0  0  0  0  0  0  0  0  0
   33.1558  -19.7924   35.9619 C   0  0  0  0  0  0  0  0  0  0  0  0
   34.2564  -19.4789   36.8916 C   0  0  0  0  0  0  0  0  0  0  0  0
   35.2777  -18.8363   36.0629 C   0  0  0  0  0  0  0  0  0  0  0  0
   34.7539  -18.8464   34.6014 C   0  0  0  0  0  0  0  0  0  0  0  0
   35.9812  -18.8336   33.7576 C   0  0  0  0  0  0  0  0  0  0  0  0
   36.8476  -17.6786   34.1241 C   0  0  0  0  0  0  0  0  0  0  0  0
   36.4278  -16.9002   35.3028 C   0  0  0  0  0  0  0  0  0  0  0  0
   36.8541  -15.5721   35.3914 C   0  0  0  0  0  0  0  0  0  0  0  0
   36.4923  -14.8011   36.4747 C   0  0  0  0  0  0  0  0  0  0  0  0
   36.9213  -13.4765   36.5565 O   0  0  0  0  0  0  0  0  0  0  0  0
   35.7055  -15.3669   37.4624 C   0  0  0  0  0  0  0  0  0  0  0  0
   35.2955  -16.6769   37.3573 C   0  0  0  0  0  0  0  0  0  0  0  0
   35.6385  -17.4549   36.3012 C   0  0  0  0  0  0  0  0  0  0  0  0
   33.9495  -20.0392   34.6538 C   0  0  0  0  0  0  0  0  0  0  0  0
   32.8396  -20.3433   33.7649 C   0  0  0  0  0  0  0  0  0  0  0  0
   32.0583  -21.3590   34.6285 C   0  0  0  0  0  0  0  0  0  0  0  0
   32.4988  -21.0821   36.0281 C   0  0  0  0  0  0  0  0  0  0  0  0
   32.3371  -21.7861   36.9946 O   0  0  0  0  0  0  0  0  0  0  0  0
   36.3446  -12.7594   36.1570 H   0  0  0  0  0  0  0  0  0  0  0  0
  2  1  1  0  0  0
  2  3  1  0  0  0
  3  4  1  0  0  0
  4  5  1  0  0  0
  5  6  1  0  0  0
  6  7  1  0  0  0
  7  8  1  0  0  0
  8  9  2  0  0  0
  9 10  1  0  0  0
 10 11  1  0  0  0
 10 12  2  0  0  0
 12 13  1  0  0  0
 13 14  2  0  0  0
  5 15  1  0  0  0
 15 16  1  0  0  0
 16 17  1  0  0  0
 17 18  1  0  0  0
 18 19  2  0  0  0
 15  2  1  0  0  0
 18  2  1  0  0  0
 14  4  1  0  0  0
 14  8  1  0  0  0
 11 20  1  0  0  0
M  END
> <minimizedAffinity>
-4.65842

> <CNNscore>
0.5941785574

> <CNNaffinity>
4.5373177528

> <CNN_VS>
2.6959769726

> <CNNaffinity_variance>
0.0721122772

$$$$
[H]Oc1c([H])c([H])c2c(c1[H])C([H])([H])C([H])([H])[C@]1([H])[C@]2([H])C([H])([H])[C@]2(C([H])([H])[H])C(=O)C([H])([H])C([H])([H])[C@]21[H]


 20 23  0  0  0  0  0  0  0  0999 V2000
   34.2861  -16.9320   35.8817 C   0  0  0  0  0  0  0  0  0  0  0  0
   35.1551  -18.0451   35.4080 C   0  0  0  0  0  0  0  0  0  0  0  0
   34.5052  -19.0123   34.5045 C   0  0  0  0  0  0  0  0  0  0  0  0
   33.9423  -20.0340   35.3888 C   0  0  0  0  0  0  0  0  0  0  0  0
   34.3461  -19.6563   36.8396 C   0  0  0  0  0  0  0  0  0  0  0  0
   34.3694  -20.9503   37.5768 C   0  0  0  0  0  0  0  0  0  0  0  0
   33.0624  -21.6500   37.4328 C   0  0  0  0  0  0  0  0  0  0  0  0
   32.0980  -21.0392   36.5009 C   0  0  0  0  0  0  0  0  0  0  0  0
   30.7412  -21.3115   36.6971 C   0  0  0  0  0  0  0  0  0  0  0  0
   29.7981  -20.7680   35.8519 C   0  0  0  0  0  0  0  0  0  0  0  0
   28.4460  -21.0440   36.0537 O   0  0  0  0  0  0  0  0  0  0  0  0
   30.2217  -19.9550   34.8154 C   0  0  0  0  0  0  0  0  0  0  0  0
   31.5626  -19.6984   34.6384 C   0  0  0  0  0  0  0  0  0  0  0  0
   32.5086  -20.2215   35.4567 C   0  0  0  0  0  0  0  0  0  0  0  0
   35.5879  -18.9819   36.5642 C   0  0  0  0  0  0  0  0  0  0  0  0
   36.2207  -18.0006   37.4309 C   0  0  0  0  0  0  0  0  0  0  0  0
   37.1062  -17.2528   36.4090 C   0  0  0  0  0  0  0  0  0  0  0  0
   36.4690  -17.5255   35.0864 C   0  0  0  0  0  0  0  0  0  0  0  0
   36.9524  -17.3480   33.9953 O   0  0  0  0  0  0  0  0  0  0  0  0
   27.9151  -20.4352   36.6487 H   0  0  0  0  0  0  0  0  0  0  0  0
  2  1  1  0  0  0
  2  3  1  0  0  0
  3  4  1  0  0  0
  4  5  1  0  0  0
  5  6  1  0  0  0
  6  7  1  0  0  0
  7  8  1  0  0  0
  8  9  2  0  0  0
  9 10  1  0  0  0
 10 11  1  0  0  0
 10 12  2  0  0  0
 12 13  1  0  0  0
 13 14  2  0  0  0
  5 15  1  0  0  0
 15 16  1  0  0  0
 16 17  1  0  0  0
 17 18  1  0  0  0
 18 19  2  0  0  0
 15  2  1  0  0  0
 18  2  1  0  0  0
 14  4  1  0  0  0
 14  8  1  0  0  0
 11 20  1  0  0  0
M  END
> <minimizedAffinity>
-5.73261

> <CNNscore>
0.5773233175

> <CNNaffinity>
4.2562699318

> <CNN_VS>
2.4572439194

> <CNNaffinity_variance>
0.2305710614

$$$$
[H]Oc1c([H])c([H])c2c(c1[H])C([H])([H])C([H])([H])[C@]1([H])[C@]2([H])C([H])([H])[C@]2(C([H])([H])[H])C(=O)C([H])([H])C([H])([H])[C@]21[H]


 20 23  0  0  0  0  0  0  0  0999 V2000
   32.6967  -20.6582   33.9923 C   0  0  0  0  0  0  0  0  0  0  0  0
   32.2645  -19.6801   35.0292 C   0  0  0  0  0  0  0  0  0  0  0  0
   32.9522  -18.3764   34.9925 C   0  0  0  0  0  0  0  0  0  0  0  0
   34.1211  -18.5428   35.8577 C   0  0  0  0  0  0  0  0  0  0  0  0
   34.0510  -19.9760   36.4506 C   0  0  0  0  0  0  0  0  0  0  0  0
   34.7831  -19.8882   37.7448 C   0  0  0  0  0  0  0  0  0  0  0  0
   36.1536  -19.3468   37.5269 C   0  0  0  0  0  0  0  0  0  0  0  0
   36.4548  -18.8708   36.1653 C   0  0  0  0  0  0  0  0  0  0  0  0
   37.7940  -18.8460   35.7657 C   0  0  0  0  0  0  0  0  0  0  0  0
   38.1305  -18.4065   34.5037 C   0  0  0  0  0  0  0  0  0  0  0  0
   39.4688  -18.3845   34.1118 O   0  0  0  0  0  0  0  0  0  0  0  0
   37.1220  -17.9945   33.6505 C   0  0  0  0  0  0  0  0  0  0  0  0
   35.8087  -18.0263   34.0623 C   0  0  0  0  0  0  0  0  0  0  0  0
   35.4533  -18.4546   35.2986 C   0  0  0  0  0  0  0  0  0  0  0  0
   32.6220  -20.1504   36.4620 C   0  0  0  0  0  0  0  0  0  0  0  0
   31.9323  -21.4305   36.4629 C   0  0  0  0  0  0  0  0  0  0  0  0
   30.5570  -21.0090   35.8983 C   0  0  0  0  0  0  0  0  0  0  0  0
   30.8232  -19.7335   35.1690 C   0  0  0  0  0  0  0  0  0  0  0  0
   30.0081  -18.9309   34.7853 O   0  0  0  0  0  0  0  0  0  0  0  0
   39.8533  -19.1991   33.6701 H   0  0  0  0  0  0  0  0  0  0  0  0
  2  1  1  0  0  0
  2  3  1  0  0  0
  3  4  1  0  0  0
  4  5  1  0  0  0
  5  6  1  0  0  0
  6  7  1  0  0  0
  7  8  1  0  0  0
  8  9  2  0  0  0
  9 10  1  0  0  0
 10 11  1  0  0  0
 10 12  2  0  0  0
 12 13  1  0  0  0
 13 14  2  0  0  0
  5 15  1  0  0  0
 15 16  1  0  0  0
 16 17  1  0  0  0
 17 18  1  0  0  0
 18 19  2  0  0  0
 15  2  1  0  0  0
 18  2  1  0  0  0
 14  4  1  0  0  0
 14  8  1  0  0  0
 11 20  1  0  0  0
M  END
> <minimizedAffinity>
-6.34566

> <CNNscore>
0.5368341804

> <CNNaffinity>
4.4824542999

> <CNN_VS>
2.4063346386

> <CNNaffinity_variance>
0.0962508693

$$$$
[H]Oc1c([H])c([H])c2c(c1[H])C([H])([H])C([H])([H])[C@]1([H])[C@]2([H])C([H])([H])[C@]2(C([H])([H])[H])C(=O)C([H])([H])C([H])([H])[C@]21[H]


 20 23  0  0  0  0  0  0  0  0999 V2000
   35.2025  -20.2229   40.0674 C   0  0  0  0  0  0  0  0  0  0  0  0
   35.8509  -21.0703   39.0282 C   0  0  0  0  0  0  0  0  0  0  0  0
   36.5631  -20.3339   37.9677 C   0  0  0  0  0  0  0  0  0  0  0  0
   35.5571  -20.1016   36.9301 C   0  0  0  0  0  0  0  0  0  0  0  0
   34.2469  -20.7886   37.4010 C   0  0  0  0  0  0  0  0  0  0  0  0
   33.5174  -21.1177   36.1448 C   0  0  0  0  0  0  0  0  0  0  0  0
   33.3411  -19.8936   35.3146 C   0  0  0  0  0  0  0  0  0  0  0  0
   34.0296  -18.6810   35.7911 C   0  0  0  0  0  0  0  0  0  0  0  0
   33.5170  -17.4428   35.3940 C   0  0  0  0  0  0  0  0  0  0  0  0
   34.1251  -16.2779   35.8090 C   0  0  0  0  0  0  0  0  0  0  0  0
   33.6081  -15.0459   35.4088 O   0  0  0  0  0  0  0  0  0  0  0  0
   35.2434  -16.3621   36.6195 C   0  0  0  0  0  0  0  0  0  0  0  0
   35.7334  -17.5911   37.0002 C   0  0  0  0  0  0  0  0  0  0  0  0
   35.1523  -18.7504   36.6048 C   0  0  0  0  0  0  0  0  0  0  0  0
   34.8151  -21.8550   38.1836 C   0  0  0  0  0  0  0  0  0  0  0  0
   34.1349  -22.5649   39.2550 C   0  0  0  0  0  0  0  0  0  0  0  0
   35.3464  -23.1061   40.0469 C   0  0  0  0  0  0  0  0  0  0  0  0
   36.4788  -22.2120   39.6622 C   0  0  0  0  0  0  0  0  0  0  0  0
   37.6552  -22.4081   39.8446 O   0  0  0  0  0  0  0  0  0  0  0  0
   32.9140  -14.6065   35.9847 H   0  0  0  0  0  0  0  0  0  0  0  0
  2  1  1  0  0  0
  2  3  1  0  0  0
  3  4  1  0  0  0
  4  5  1  0  0  0
  5  6  1  0  0  0
  6  7  1  0  0  0
  7  8  1  0  0  0
  8  9  2  0  0  0
  9 10  1  0  0  0
 10 11  1  0  0  0
 10 12  2  0  0  0
 12 13  1  0  0  0
 13 14  2  0  0  0
  5 15  1  0  0  0
 15 16  1  0  0  0
 16 17  1  0  0  0
 17 18  1  0  0  0
 18 19  2  0  0  0
 15  2  1  0  0  0
 18  2  1  0  0  0
 14  4  1  0  0  0
 14  8  1  0  0  0
 11 20  1  0  0  0
M  END
> <minimizedAffinity>
-4.57383

> <CNNscore>
0.5251324177

> <CNNaffinity>
4.0471034050

> <CNN_VS>
2.1252651215

> <CNNaffinity_variance>
0.0877626091

$$$$
[H]Oc1c([H])c([H])c2c(c1[H])C([H])([H])C([H])([H])[C@]1([H])[C@]2([H])C([H])([H])[C@]2(C([H])([H])[H])C(=O)C([H])([H])C([H])([H])[C@]21[H]


 20 23  0  0  0  0  0  0  0  0999 V2000
   35.6002  -19.5520   38.9867 C   0  0  0  0  0  0  0  0  0  0  0  0
   36.2402  -20.5000   38.0326 C   0  0  0  0  0  0  0  0  0  0  0  0
   35.9882  -20.2257   36.6059 C   0  0  0  0  0  0  0  0  0  0  0  0
   34.7691  -20.9713   36.2889 C   0  0  0  0  0  0  0  0  0  0  0  0
   34.3575  -21.7423   37.5721 C   0  0  0  0  0  0  0  0  0  0  0  0
   33.6022  -22.9271   37.0780 C   0  0  0  0  0  0  0  0  0  0  0  0
   32.4808  -22.4942   36.1983 C   0  0  0  0  0  0  0  0  0  0  0  0
   32.4317  -21.0591   35.8676 C   0  0  0  0  0  0  0  0  0  0  0  0
   31.1943  -20.5149   35.5124 C   0  0  0  0  0  0  0  0  0  0  0  0
   31.0937  -19.1787   35.1906 C   0  0  0  0  0  0  0  0  0  0  0  0
   29.8557  -18.6425   34.8371 O   0  0  0  0  0  0  0  0  0  0  0  0
   32.2348  -18.3968   35.2271 C   0  0  0  0  0  0  0  0  0  0  0  0
   33.4447  -18.9511   35.5795 C   0  0  0  0  0  0  0  0  0  0  0  0
   33.5684  -20.2626   35.9001 C   0  0  0  0  0  0  0  0  0  0  0  0
   35.6606  -21.9322   38.1539 C   0  0  0  0  0  0  0  0  0  0  0  0
   35.9242  -22.1685   39.5643 C   0  0  0  0  0  0  0  0  0  0  0  0
   37.3971  -21.7102   39.6554 C   0  0  0  0  0  0  0  0  0  0  0  0
   37.5833  -20.8029   38.4842 C   0  0  0  0  0  0  0  0  0  0  0  0
   38.6286  -20.4140   38.0239 O   0  0  0  0  0  0  0  0  0  0  0  0
   29.2711  -18.2663   35.5605 H   0  0  0  0  0  0  0  0  0  0  0  0
  2  1  1  0  0  0
  2  3  1  0  0  0
  3  4  1  0  0  0
  4  5  1  0  0  0
  5  6  1  0  0  0
  6  7  1  0  0  0
  7  8  1  0  0  0
  8  9  2  0  0  0
  9 10  1  0  0  0
 10 11  1  0  0  0
 10 12  2  0  0  0
 12 13  1  0  0  0
 13 14  2  0  0  0
  5 15  1  0  0  0
 15 16  1  0  0  0
 16 17  1  0  0  0
 17 18  1  0  0  0
 18 19  2  0  0  0
 15  2  1  0  0  0
 18  2  1  0  0  0
 14  4  1  0  0  0
 14  8  1  0  0  0
 11 20  1  0  0  0
M  END
> <minimizedAffinity>
-4.07311

> <CNNscore>
0.5203849673

> <CNNaffinity>
3.9698891640

> <CNN_VS>
2.0658707619

> <CNNaffinity_variance>
0.0609410293

$$$$
[H]Oc1c([H])c([H])c2c(c1[H])C([H])([H])C([H])([H])[C@]1([H])[C@]2([H])C([H])([H])[C@]2(C([H])([H])[H])C(=O)C([H])([H])C([H])([H])[C@]21[H]


 20 23  0  0  0  0  0  0  0  0999 V2000
   35.3849  -19.7383   38.9611 C   0  0  0  0  0  0  0  0  0  0  0  0
   35.9512  -20.0850   37.6278 C   0  0  0  0  0  0  0  0  0  0  0  0
   36.8167  -19.0559   37.0229 C   0  0  0  0  0  0  0  0  0  0  0  0
   35.9093  -18.2103   36.2456 C   0  0  0  0  0  0  0  0  0  0  0  0
   34.4899  -18.8267   36.3706 C   0  0  0  0  0  0  0  0  0  0  0  0
   33.7831  -18.4084   35.1280 C   0  0  0  0  0  0  0  0  0  0  0  0
   33.8320  -16.9270   34.9801 C   0  0  0  0  0  0  0  0  0  0  0  0
   34.6683  -16.2044   35.9548 C   0  0  0  0  0  0  0  0  0  0  0  0
   34.3656  -14.8628   36.2040 C   0  0  0  0  0  0  0  0  0  0  0  0
   35.1185  -14.1402   37.1041 C   0  0  0  0  0  0  0  0  0  0  0  0
   34.8107  -12.8019   37.3478 O   0  0  0  0  0  0  0  0  0  0  0  0
   36.1702  -14.7676   37.7483 C   0  0  0  0  0  0  0  0  0  0  0  0
   36.4528  -16.0899   37.4896 C   0  0  0  0  0  0  0  0  0  0  0  0
   35.7264  -16.8211   36.6087 C   0  0  0  0  0  0  0  0  0  0  0  0
   34.8538  -20.2091   36.5406 C   0  0  0  0  0  0  0  0  0  0  0  0
   34.0232  -21.2253   37.1668 C   0  0  0  0  0  0  0  0  0  0  0  0
   35.1000  -22.2552   37.5761 C   0  0  0  0  0  0  0  0  0  0  0  0
   36.3703  -21.4721   37.6297 C   0  0  0  0  0  0  0  0  0  0  0  0
   37.4940  -21.9099   37.6664 O   0  0  0  0  0  0  0  0  0  0  0  0
   34.1617  -12.5843   38.0812 H   0  0  0  0  0  0  0  0  0  0  0  0
  2  1  1  0  0  0
  2  3  1  0  0  0
  3  4  1  0  0  0
  4  5  1  0  0  0
  5  6  1  0  0  0
  6  7  1  0  0  0
  7  8  1  0  0  0
  8  9  2  0  0  0
  9 10  1  0  0  0
 10 11  1  0  0  0
 10 12  2  0  0  0
 12 13  1  0  0  0
 13 14  2  0  0  0
  5 15  1  0  0  0
 15 16  1  0  0  0
 16 17  1  0  0  0
 17 18  1  0  0  0
 18 19  2  0  0  0
 15  2  1  0  0  0
 18  2  1  0  0  0
 14  4  1  0  0  0
 14  8  1  0  0  0
 11 20  1  0  0  0
M  END
> <minimizedAffinity>
-6.53960

> <CNNscore>
0.4888042808

> <CNNaffinity>
4.3016519547

> <CNN_VS>
2.1026659012

> <CNNaffinity_variance>
0.2191509306

$$$$
[H]Oc1c([H])c([H])c2c(c1[H])C([H])([H])C([H])([H])[C@]1([H])[C@]2([H])C([H])([H])[C@]2(C([H])([H])[H])C(=O)C([H])([H])C([H])([H])[C@]21[H]


 20 23  0  0  0  0  0  0  0  0999 V2000
   37.0487  -21.4500   41.1019 C   0  0  0  0  0  0  0  0  0  0  0  0
   36.1826  -22.1019   40.0804 C   0  0  0  0  0  0  0  0  0  0  0  0
   36.8598  -22.4773   38.8257 C   0  0  0  0  0  0  0  0  0  0  0  0
   36.7298  -21.3028   37.9618 C   0  0  0  0  0  0  0  0  0  0  0  0
   35.8937  -20.2520   38.7410 C   0  0  0  0  0  0  0  0  0  0  0  0
   35.2366  -19.4310   37.6862 C   0  0  0  0  0  0  0  0  0  0  0  0
   36.2566  -18.8789   36.7516 C   0  0  0  0  0  0  0  0  0  0  0  0
   37.6373  -19.3580   36.9405 C   0  0  0  0  0  0  0  0  0  0  0  0
   38.6773  -18.5422   36.4864 C   0  0  0  0  0  0  0  0  0  0  0  0
   39.9869  -18.9447   36.6355 C   0  0  0  0  0  0  0  0  0  0  0  0
   41.0196  -18.1254   36.1800 O   0  0  0  0  0  0  0  0  0  0  0  0
   40.2450  -20.1628   37.2390 C   0  0  0  0  0  0  0  0  0  0  0  0
   39.2070  -20.9525   37.6798 C   0  0  0  0  0  0  0  0  0  0  0  0
   37.9111  -20.5778   37.5443 C   0  0  0  0  0  0  0  0  0  0  0  0
   35.0924  -21.1423   39.5396 C   0  0  0  0  0  0  0  0  0  0  0  0
   34.4486  -20.7938   40.7961 C   0  0  0  0  0  0  0  0  0  0  0  0
   34.2784  -22.1959   41.4229 C   0  0  0  0  0  0  0  0  0  0  0  0
   35.2956  -23.0438   40.7330 C   0  0  0  0  0  0  0  0  0  0  0  0
   35.3556  -24.2489   40.7275 O   0  0  0  0  0  0  0  0  0  0  0  0
   41.4075  -17.4471   36.8091 H   0  0  0  0  0  0  0  0  0  0  0  0
  2  1  1  0  0  0
  2  3  1  0  0  0
  3  4  1  0  0  0
  4  5  1  0  0  0
  5  6  1  0  0  0
  6  7  1  0  0  0
  7  8  1  0  0  0
  8  9  2  0  0  0
  9 10  1  0  0  0
 10 11  1  0  0  0
 10 12  2  0  0  0
 12 13  1  0  0  0
 13 14  2  0  0  0
  5 15  1  0  0  0
 15 16  1  0  0  0
 16 17  1  0  0  0
 17 18  1  0  0  0
 18 19  2  0  0  0
 15  2  1  0  0  0
 18  2  1  0  0  0
 14  4  1  0  0  0
 14  8  1  0  0  0
 11 20  1  0  0  0
M  END
> <minimizedAffinity>
-4.12620

> <CNNscore>
0.4798464477

> <CNNaffinity>
3.9140732288

> <CNN_VS>
1.8781541586

> <CNNaffinity_variance>
0.0756059811

$$$$
[H]c1nc(-c2nc(N([H])c3c([H])c([H])c(C(F)(F)F)c([H])c3[H])c3c([H])c([H])c([H])c([H])c3n2)c([H])c([H])c1[H]


 28 31  0  0  0  0  0  0  0  0999 V2000
   34.0634  -17.7334   34.9263 C   0  0  0  0  0  0  0  0  0  0  0  0
   33.6871  -16.5510   35.2393 N   0  0  0  0  0  0  0  0  0  0  0  0
   33.7960  -15.4927   35.7688 C   0  0  0  0  0  0  0  0  0  0  0  0
   35.3102  -15.9546   36.4110 N   0  0  0  0  0  0  0  0  0  0  0  0
   35.8576  -16.9918   36.2741 C   0  0  0  0  0  0  0  0  0  0  0  0
   37.1150  -17.2487   36.8577 C   0  0  0  0  0  0  0  0  0  0  0  0
   37.7514  -18.3832   36.6893 C   0  0  0  0  0  0  0  0  0  0  0  0
   37.2279  -19.3585   35.9441 C   0  0  0  0  0  0  0  0  0  0  0  0
   35.9828  -19.1916   35.3230 C   0  0  0  0  0  0  0  0  0  0  0  0
   35.3015  -18.0404   35.4952 C   0  0  0  0  0  0  0  0  0  0  0  0
   33.9491  -14.2166   36.4490 C   0  0  0  0  0  0  0  0  0  0  0  0
   33.1540  -13.7524   37.4535 C   0  0  0  0  0  0  0  0  0  0  0  0
   33.2622  -12.4644   37.9590 C   0  0  0  0  0  0  0  0  0  0  0  0
   34.1996  -11.6292   37.4696 C   0  0  0  0  0  0  0  0  0  0  0  0
   34.9781  -12.1418   36.4689 C   0  0  0  0  0  0  0  0  0  0  0  0
   34.9318  -13.3168   35.9206 N   0  0  0  0  0  0  0  0  0  0  0  0
   33.4304  -18.7434   34.2235 N   0  0  0  0  0  0  0  0  0  0  0  0
   33.9866  -19.1183   33.3365 H   0  0  0  0  0  0  0  0  0  0  0  0
   30.0548  -20.9250   35.5113 C   0  0  0  0  0  0  0  0  0  0  0  0
   29.9243  -19.5667   35.1094 C   0  0  0  0  0  0  0  0  0  0  0  0
   30.9902  -18.9513   34.6270 C   0  0  0  0  0  0  0  0  0  0  0  0
   32.2762  -19.4860   34.4468 C   0  0  0  0  0  0  0  0  0  0  0  0
   32.3991  -20.8106   34.8351 C   0  0  0  0  0  0  0  0  0  0  0  0
   31.3015  -21.4735   35.3471 C   0  0  0  0  0  0  0  0  0  0  0  0
   28.1264  -20.6183   36.8020 F   0  0  0  0  0  0  0  0  0  0  0  0
   28.9832  -21.5924   36.2422 C   0  0  0  0  0  0  0  0  0  0  0  0
   28.1545  -22.3105   35.3996 F   0  0  0  0  0  0  0  0  0  0  0  0
   29.4169  -22.3383   37.2879 F   0  0  0  0  0  0  0  0  0  0  0  0
 25 26  1  0  0  0
 26 27  1  0  0  0
 26 28  1  0  0  0
 26 19  1  0  0  0
 19 20  2  0  0  0
 20 21  1  0  0  0
 21 22  2  0  0  0
 22 17  1  0  0  0
 17  1  1  0  0  0
  1  2  2  0  0  0
  2  3  1  0  0  0
  3  4  2  0  0  0
  4  5  1  0  0  0
  5  6  2  0  0  0
  6  7  1  0  0  0
  7  8  2  0  0  0
  8  9  1  0  0  0
  9 10  2  0  0  0
  3 11  1  0  0  0
 11 12  2  0  0  0
 12 13  1  0  0  0
 13 14  2  0  0  0
 14 15  1  0  0  0
 15 16  2  0  0  0
 22 23  1  0  0  0
 23 24  2  0  0  0
 24 19  1  0  0  0
 10  1  1  0  0  0
 16 11  1  0  0  0
 10  5  1  0  0  0
 17 18  1  0  0  0
M  END
> <minimizedAffinity>
-8.02299

> <CNNscore>
0.3655532598

> <CNNaffinity>
5.3975982666

> <CNN_VS>
1.9731096029

> <CNNaffinity_variance>
0.4215111136

$$$$
[H]c1nc(-c2nc(N([H])c3c([H])c([H])c(C(F)(F)F)c([H])c3[H])c3c([H])c([H])c([H])c([H])c3n2)c([H])c([H])c1[H]


 28 31  0  0  0  0  0  0  0  0999 V2000
   34.2359  -17.5020   35.2079 C   0  0  0  0  0  0  0  0  0  0  0  0
   35.2735  -18.2013   34.9391 N   0  0  0  0  0  0  0  0  0  0  0  0
   36.4414  -18.4065   34.8615 C   0  0  0  0  0  0  0  0  0  0  0  0
   36.7701  -16.8430   35.4665 N   0  0  0  0  0  0  0  0  0  0  0  0
   35.9849  -16.0155   35.7712 C   0  0  0  0  0  0  0  0  0  0  0  0
   36.3877  -14.7573   36.2634 C   0  0  0  0  0  0  0  0  0  0  0  0
   35.5288  -13.8387   36.6364 C   0  0  0  0  0  0  0  0  0  0  0  0
   34.2148  -14.0605   36.5667 C   0  0  0  0  0  0  0  0  0  0  0  0
   33.7219  -15.2834   36.0919 C   0  0  0  0  0  0  0  0  0  0  0  0
   34.5852  -16.2372   35.6865 C   0  0  0  0  0  0  0  0  0  0  0  0
   37.8764  -18.6169   34.7564 C   0  0  0  0  0  0  0  0  0  0  0  0
   38.6197  -18.4668   33.6244 C   0  0  0  0  0  0  0  0  0  0  0  0
   39.9585  -18.8259   33.5550 C   0  0  0  0  0  0  0  0  0  0  0  0
   40.5762  -19.3224   34.6449 C   0  0  0  0  0  0  0  0  0  0  0  0
   39.7922  -19.4475   35.7585 C   0  0  0  0  0  0  0  0  0  0  0  0
   38.5351  -19.1627   35.9066 N   0  0  0  0  0  0  0  0  0  0  0  0
   32.8872  -17.7506   35.0238 N   0  0  0  0  0  0  0  0  0  0  0  0
   32.3730  -17.0566   34.3234 H   0  0  0  0  0  0  0  0  0  0  0  0
   30.4069  -21.0887   35.7431 C   0  0  0  0  0  0  0  0  0  0  0  0
   31.7296  -21.0483   36.2649 C   0  0  0  0  0  0  0  0  0  0  0  0
   32.4373  -19.9451   36.0927 C   0  0  0  0  0  0  0  0  0  0  0  0
   32.0351  -18.7651   35.4459 C   0  0  0  0  0  0  0  0  0  0  0  0
   30.7447  -18.8060   34.9424 C   0  0  0  0  0  0  0  0  0  0  0  0
   29.9875  -19.9491   35.1049 C   0  0  0  0  0  0  0  0  0  0  0  0
   29.5407  -22.8433   37.0276 F   0  0  0  0  0  0  0  0  0  0  0  0
   29.6553  -22.3386   35.7128 C   0  0  0  0  0  0  0  0  0  0  0  0
   28.3432  -22.1413   35.3234 F   0  0  0  0  0  0  0  0  0  0  0  0
   30.2570  -23.3210   34.9981 F   0  0  0  0  0  0  0  0  0  0  0  0
 25 26  1  0  0  0
 26 27  1  0  0  0
 26 28  1  0  0  0
 26 19  1  0  0  0
 19 20  2  0  0  0
 20 21  1  0  0  0
 21 22  2  0  0  0
 22 17  1  0  0  0
 17  1  1  0  0  0
  1  2  2  0  0  0
  2  3  1  0  0  0
  3  4  2  0  0  0
  4  5  1  0  0  0
  5  6  2  0  0  0
  6  7  1  0  0  0
  7  8  2  0  0  0
  8  9  1  0  0  0
  9 10  2  0  0  0
  3 11  1  0  0  0
 11 12  2  0  0  0
 12 13  1  0  0  0
 13 14  2  0  0  0
 14 15  1  0  0  0
 15 16  2  0  0  0
 22 23  1  0  0  0
 23 24  2  0  0  0
 24 19  1  0  0  0
 10  1  1  0  0  0
 16 11  1  0  0  0
 10  5  1  0  0  0
 17 18  1  0  0  0
M  END
> <minimizedAffinity>
-7.90281

> <CNNscore>
0.3450765908

> <CNNaffinity>
5.2204046249

> <CNN_VS>
1.8014394045

> <CNNaffinity_variance>
0.2570499778

$$$$
[H]c1nc(-c2nc(N([H])c3c([H])c([H])c(C(F)(F)F)c([H])c3[H])c3c([H])c([H])c([H])c([H])c3n2)c([H])c([H])c1[H]


 28 31  0  0  0  0  0  0  0  0999 V2000
   33.8622  -13.9327   36.4816 C   0  0  0  0  0  0  0  0  0  0  0  0
   33.3802  -15.0216   36.0128 N   0  0  0  0  0  0  0  0  0  0  0  0
   33.4201  -16.1656   35.6936 C   0  0  0  0  0  0  0  0  0  0  0  0
   35.0536  -16.2599   36.1848 N   0  0  0  0  0  0  0  0  0  0  0  0
   35.7159  -15.3910   36.6328 C   0  0  0  0  0  0  0  0  0  0  0  0
   37.0599  -15.6000   37.0040 C   0  0  0  0  0  0  0  0  0  0  0  0
   37.7999  -14.6548   37.5325 C   0  0  0  0  0  0  0  0  0  0  0  0
   37.3034  -13.4349   37.7470 C   0  0  0  0  0  0  0  0  0  0  0  0
   35.9761  -13.1358   37.4112 C   0  0  0  0  0  0  0  0  0  0  0  0
   35.2004  -14.0864   36.8507 C   0  0  0  0  0  0  0  0  0  0  0  0
   33.5091  -17.5601   35.2911 C   0  0  0  0  0  0  0  0  0  0  0  0
   34.2556  -18.0418   34.2580 C   0  0  0  0  0  0  0  0  0  0  0  0
   34.1820  -19.3608   33.8328 C   0  0  0  0  0  0  0  0  0  0  0  0
   33.3650  -20.2245   34.4670 C   0  0  0  0  0  0  0  0  0  0  0  0
   32.6423  -19.6975   35.5015 C   0  0  0  0  0  0  0  0  0  0  0  0
   32.6286  -18.4799   35.9494 N   0  0  0  0  0  0  0  0  0  0  0  0
   33.3247  -12.6625   36.5922 N   0  0  0  0  0  0  0  0  0  0  0  0
   33.7610  -11.9063   35.9034 H   0  0  0  0  0  0  0  0  0  0  0  0
   29.7300  -11.3044   38.3375 C   0  0  0  0  0  0  0  0  0  0  0  0
   30.3716  -12.4753   38.8282 C   0  0  0  0  0  0  0  0  0  0  0  0
   31.5416  -12.8110   38.3124 C   0  0  0  0  0  0  0  0  0  0  0  0
   32.2606  -12.1335   37.3143 C   0  0  0  0  0  0  0  0  0  0  0  0
   31.6350  -10.9910   36.8413 C   0  0  0  0  0  0  0  0  0  0  0  0
   30.4099  -10.6225   37.3604 C   0  0  0  0  0  0  0  0  0  0  0  0
   27.9861  -11.7861   39.8226 F   0  0  0  0  0  0  0  0  0  0  0  0
   28.3531  -10.9976   38.7090 C   0  0  0  0  0  0  0  0  0  0  0  0
   28.2207   -9.7005   39.1696 F   0  0  0  0  0  0  0  0  0  0  0  0
   27.4481  -11.2904   37.7429 F   0  0  0  0  0  0  0  0  0  0  0  0
 25 26  1  0  0  0
 26 27  1  0  0  0
 26 28  1  0  0  0
 26 19  1  0  0  0
 19 20  2  0  0  0
 20 21  1  0  0  0
 21 22  2  0  0  0
 22 17  1  0  0  0
 17  1  1  0  0  0
  1  2  2  0  0  0
  2  3  1  0  0  0
  3  4  2  0  0  0
  4  5  1  0  0  0
  5  6  2  0  0  0
  6  7  1  0  0  0
  7  8  2  0  0  0
  8  9  1  0  0  0
  9 10  2  0  0  0
  3 11  1  0  0  0
 11 12  2  0  0  0
 12 13  1  0  0  0
 13 14  2  0  0  0
 14 15  1  0  0  0
 15 16  2  0  0  0
 22 23  1  0  0  0
 23 24  2  0  0  0
 24 19  1  0  0  0
 10  1  1  0  0  0
 16 11  1  0  0  0
 10  5  1  0  0  0
 17 18  1  0  0  0
M  END
> <minimizedAffinity>
-8.25710

> <CNNscore>
0.3421984017

> <CNNaffinity>
5.9239168167

> <CNN_VS>
2.0271549225

> <CNNaffinity_variance>
0.1786951125

$$$$
[H]c1nc(-c2nc(N([H])c3c([H])c([H])c(C(F)(F)F)c([H])c3[H])c3c([H])c([H])c([H])c([H])c3n2)c([H])c([H])c1[H]


 28 31  0  0  0  0  0  0  0  0999 V2000
   34.5670  -17.9650   34.8414 C   0  0  0  0  0  0  0  0  0  0  0  0
   35.6631  -18.6242   34.7992 N   0  0  0  0  0  0  0  0  0  0  0  0
   36.8167  -18.8076   35.0179 C   0  0  0  0  0  0  0  0  0  0  0  0
   36.9176  -17.3032   35.8212 N   0  0  0  0  0  0  0  0  0  0  0  0
   36.0505  -16.5167   35.9760 C   0  0  0  0  0  0  0  0  0  0  0  0
   36.2636  -15.3049   36.6643 C   0  0  0  0  0  0  0  0  0  0  0  0
   35.3043  -14.4351   36.8730 C   0  0  0  0  0  0  0  0  0  0  0  0
   34.0642  -14.6648   36.4372 C   0  0  0  0  0  0  0  0  0  0  0  0
   33.7584  -15.8442   35.7447 C   0  0  0  0  0  0  0  0  0  0  0  0
   34.7318  -16.7461   35.5030 C   0  0  0  0  0  0  0  0  0  0  0  0
   38.2351  -18.9905   35.2809 C   0  0  0  0  0  0  0  0  0  0  0  0
   38.7997  -19.1535   36.5103 C   0  0  0  0  0  0  0  0  0  0  0  0
   40.1735  -19.1747   36.7061 C   0  0  0  0  0  0  0  0  0  0  0  0
   41.0025  -19.0556   35.6504 C   0  0  0  0  0  0  0  0  0  0  0  0
   40.3903  -18.9019   34.4373 C   0  0  0  0  0  0  0  0  0  0  0  0
   39.1230  -18.8459   34.1649 N   0  0  0  0  0  0  0  0  0  0  0  0
   33.3246  -18.2114   34.2842 N   0  0  0  0  0  0  0  0  0  0  0  0
   33.1095  -17.6492   33.3492 H   0  0  0  0  0  0  0  0  0  0  0  0
   30.1819  -20.6279   35.7319 C   0  0  0  0  0  0  0  0  0  0  0  0
   29.9147  -19.5668   34.8229 C   0  0  0  0  0  0  0  0  0  0  0  0
   30.9391  -18.8958   34.3252 C   0  0  0  0  0  0  0  0  0  0  0  0
   32.3037  -19.1076   34.5808 C   0  0  0  0  0  0  0  0  0  0  0  0
   32.5610  -20.1446   35.4633 C   0  0  0  0  0  0  0  0  0  0  0  0
   31.5075  -20.8569   36.0009 C   0  0  0  0  0  0  0  0  0  0  0  0
   29.6163  -21.8162   37.6676 F   0  0  0  0  0  0  0  0  0  0  0  0
   29.0991  -21.2640   36.4743 C   0  0  0  0  0  0  0  0  0  0  0  0
   28.1679  -20.3427   36.9176 F   0  0  0  0  0  0  0  0  0  0  0  0
   28.5198  -22.2985   35.8169 F   0  0  0  0  0  0  0  0  0  0  0  0
 25 26  1  0  0  0
 26 27  1  0  0  0
 26 28  1  0  0  0
 26 19  1  0  0  0
 19 20  2  0  0  0
 20 21  1  0  0  0
 21 22  2  0  0  0
 22 17  1  0  0  0
 17  1  1  0  0  0
  1  2  2  0  0  0
  2  3  1  0  0  0
  3  4  2  0  0  0
  4  5  1  0  0  0
  5  6  2  0  0  0
  6  7  1  0  0  0
  7  8  2  0  0  0
  8  9  1  0  0  0
  9 10  2  0  0  0
  3 11  1  0  0  0
 11 12  2  0  0  0
 12 13  1  0  0  0
 13 14  2  0  0  0
 14 15  1  0  0  0
 15 16  2  0  0  0
 22 23  1  0  0  0
 23 24  2  0  0  0
 24 19  1  0  0  0
 10  1  1  0  0  0
 16 11  1  0  0  0
 10  5  1  0  0  0
 17 18  1  0  0  0
M  END
> <minimizedAffinity>
-7.59732

> <CNNscore>
0.3259851933

> <CNNaffinity>
5.1467232704

> <CNN_VS>
1.6777555943

> <CNNaffinity_variance>
0.3234185278

$$$$
[H]c1nc(-c2nc(N([H])c3c([H])c([H])c(C(F)(F)F)c([H])c3[H])c3c([H])c([H])c([H])c([H])c3n2)c([H])c([H])c1[H]


 28 31  0  0  0  0  0  0  0  0999 V2000
   35.0820  -20.1514   36.6821 C   0  0  0  0  0  0  0  0  0  0  0  0
   36.2224  -19.9633   36.1327 N   0  0  0  0  0  0  0  0  0  0  0  0
   37.4101  -19.9359   36.1025 C   0  0  0  0  0  0  0  0  0  0  0  0
   37.4767  -20.4422   37.7328 N   0  0  0  0  0  0  0  0  0  0  0  0
   36.5649  -20.6650   38.4492 C   0  0  0  0  0  0  0  0  0  0  0  0
   36.7549  -21.0820   39.7825 C   0  0  0  0  0  0  0  0  0  0  0  0
   35.7541  -21.3645   40.5818 C   0  0  0  0  0  0  0  0  0  0  0  0
   34.4919  -21.2697   40.1594 C   0  0  0  0  0  0  0  0  0  0  0  0
   34.2069  -20.8650   38.8483 C   0  0  0  0  0  0  0  0  0  0  0  0
   35.2187  -20.5527   38.0129 C   0  0  0  0  0  0  0  0  0  0  0  0
   38.8635  -19.8898   36.1060 C   0  0  0  0  0  0  0  0  0  0  0  0
   39.6242  -18.8821   36.6182 C   0  0  0  0  0  0  0  0  0  0  0  0
   41.0017  -18.8287   36.4579 C   0  0  0  0  0  0  0  0  0  0  0  0
   41.6376  -19.8138   35.7938 C   0  0  0  0  0  0  0  0  0  0  0  0
   40.8339  -20.8065   35.3051 C   0  0  0  0  0  0  0  0  0  0  0  0
   39.5443  -20.9249   35.3850 N   0  0  0  0  0  0  0  0  0  0  0  0
   33.7942  -19.9433   36.2206 N   0  0  0  0  0  0  0  0  0  0  0  0
   33.5551  -18.8904   35.9544 H   0  0  0  0  0  0  0  0  0  0  0  0
   30.6293  -22.7126   35.8646 C   0  0  0  0  0  0  0  0  0  0  0  0
   30.3581  -21.3260   36.0298 C   0  0  0  0  0  0  0  0  0  0  0  0
   31.3785  -20.4858   36.0447 C   0  0  0  0  0  0  0  0  0  0  0  0
   32.7414  -20.7953   35.9058 C   0  0  0  0  0  0  0  0  0  0  0  0
   33.0021  -22.1463   35.7407 C   0  0  0  0  0  0  0  0  0  0  0  0
   31.9534  -23.0443   35.7273 C   0  0  0  0  0  0  0  0  0  0  0  0
   30.1509  -24.9091   36.5168 F   0  0  0  0  0  0  0  0  0  0  0  0
   29.5767  -23.7054   36.0502 C   0  0  0  0  0  0  0  0  0  0  0  0
   28.7032  -23.3472   37.0606 F   0  0  0  0  0  0  0  0  0  0  0  0
   28.9265  -24.0329   34.9065 F   0  0  0  0  0  0  0  0  0  0  0  0
 25 26  1  0  0  0
 26 27  1  0  0  0
 26 28  1  0  0  0
 26 19  1  0  0  0
 19 20  2  0  0  0
 20 21  1  0  0  0
 21 22  2  0  0  0
 22 17  1  0  0  0
 17  1  1  0  0  0
  1  2  2  0  0  0
  2  3  1  0  0  0
  3  4  2  0  0  0
  4  5  1  0  0  0
  5  6  2  0  0  0
  6  7  1  0  0  0
  7  8  2  0  0  0
  8  9  1  0  0  0
  9 10  2  0  0  0
  3 11  1  0  0  0
 11 12  2  0  0  0
 12 13  1  0  0  0
 13 14  2  0  0  0
 14 15  1  0  0  0
 15 16  2  0  0  0
 22 23  1  0  0  0
 23 24  2  0  0  0
 24 19  1  0  0  0
 10  1  1  0  0  0
 16 11  1  0  0  0
 10  5  1  0  0  0
 17 18  1  0  0  0
M  END
> <minimizedAffinity>
-4.37406

> <CNNscore>
0.2903332710

> <CNNaffinity>
4.7945613861

> <CNN_VS>
1.3920207024

> <CNNaffinity_variance>
0.0420991257

$$$$
[H]c1nc(-c2nc(N([H])c3c([H])c([H])c(C(F)(F)F)c([H])c3[H])c3c([H])c([H])c([H])c([H])c3n2)c([H])c([H])c1[H]


 28 31  0  0  0  0  0  0  0  0999 V2000
   36.5104  -20.2169   36.6885 C   0  0  0  0  0  0  0  0  0  0  0  0
   37.4237  -19.5358   36.1056 N   0  0  0  0  0  0  0  0  0  0  0  0
   38.5235  -19.3348   35.7027 C   0  0  0  0  0  0  0  0  0  0  0  0
   39.0326  -20.8544   36.2945 N   0  0  0  0  0  0  0  0  0  0  0  0
   38.3808  -21.6497   36.8748 C   0  0  0  0  0  0  0  0  0  0  0  0
   38.9228  -22.8761   37.3105 C   0  0  0  0  0  0  0  0  0  0  0  0
   38.2051  -23.7839   37.9279 C   0  0  0  0  0  0  0  0  0  0  0  0
   36.9087  -23.5830   38.1722 C   0  0  0  0  0  0  0  0  0  0  0  0
   36.2836  -22.3938   37.7735 C   0  0  0  0  0  0  0  0  0  0  0  0
   37.0046  -21.4382   37.1521 C   0  0  0  0  0  0  0  0  0  0  0  0
   39.8846  -19.1098   35.2431 C   0  0  0  0  0  0  0  0  0  0  0  0
   40.9321  -18.7229   36.0239 C   0  0  0  0  0  0  0  0  0  0  0  0
   42.1709  -18.3821   35.4991 C   0  0  0  0  0  0  0  0  0  0  0  0
   42.3773  -18.4522   34.1693 C   0  0  0  0  0  0  0  0  0  0  0  0
   41.3000  -18.8524   33.4280 C   0  0  0  0  0  0  0  0  0  0  0  0
   40.1058  -19.1645   33.8278 N   0  0  0  0  0  0  0  0  0  0  0  0
   35.1965  -19.9150   37.0000 N   0  0  0  0  0  0  0  0  0  0  0  0
   35.0408  -19.4871   38.0145 H   0  0  0  0  0  0  0  0  0  0  0  0
   31.3282  -19.7729   35.3183 C   0  0  0  0  0  0  0  0  0  0  0  0
   32.2383  -18.6971   35.1236 C   0  0  0  0  0  0  0  0  0  0  0  0
   33.4683  -18.8253   35.5905 C   0  0  0  0  0  0  0  0  0  0  0  0
   34.0131  -19.9271   36.2699 C   0  0  0  0  0  0  0  0  0  0  0  0
   33.1254  -20.9751   36.4542 C   0  0  0  0  0  0  0  0  0  0  0  0
   31.8334  -20.8629   35.9805 C   0  0  0  0  0  0  0  0  0  0  0  0
   29.4068  -18.5016   35.7321 F   0  0  0  0  0  0  0  0  0  0  0  0
   29.9095  -19.6127   35.0185 C   0  0  0  0  0  0  0  0  0  0  0  0
   29.6980  -19.2732   33.6947 F   0  0  0  0  0  0  0  0  0  0  0  0
   29.1473  -20.6659   35.4028 F   0  0  0  0  0  0  0  0  0  0  0  0
 25 26  1  0  0  0
 26 27  1  0  0  0
 26 28  1  0  0  0
 26 19  1  0  0  0
 19 20  2  0  0  0
 20 21  1  0  0  0
 21 22  2  0  0  0
 22 17  1  0  0  0
 17  1  1  0  0  0
  1  2  2  0  0  0
  2  3  1  0  0  0
  3  4  2  0  0  0
  4  5  1  0  0  0
  5  6  2  0  0  0
  6  7  1  0  0  0
  7  8  2  0  0  0
  8  9  1  0  0  0
  9 10  2  0  0  0
  3 11  1  0  0  0
 11 12  2  0  0  0
 12 13  1  0  0  0
 13 14  2  0  0  0
 14 15  1  0  0  0
 15 16  2  0  0  0
 22 23  1  0  0  0
 23 24  2  0  0  0
 24 19  1  0  0  0
 10  1  1  0  0  0
 16 11  1  0  0  0
 10  5  1  0  0  0
 17 18  1  0  0  0
M  END
> <minimizedAffinity>
-5.24357

> <CNNscore>
0.2863478363

> <CNNaffinity>
4.7483129501

> <CNN_VS>
1.3596690893

> <CNNaffinity_variance>
0.0487696975

$$$$
[H]c1nc(-c2nc(N([H])c3c([H])c([H])c(C(F)(F)F)c([H])c3[H])c3c([H])c([H])c([H])c([H])c3n2)c([H])c([H])c1[H]


 28 31  0  0  0  0  0  0  0  0999 V2000
   36.1926  -19.5483   36.6612 C   0  0  0  0  0  0  0  0  0  0  0  0
   35.7928  -18.3726   36.9707 N   0  0  0  0  0  0  0  0  0  0  0  0
   35.7462  -17.1899   36.8642 C   0  0  0  0  0  0  0  0  0  0  0  0
   36.8565  -17.2492   35.5672 N   0  0  0  0  0  0  0  0  0  0  0  0
   37.3724  -18.2089   35.1120 C   0  0  0  0  0  0  0  0  0  0  0  0
   38.2748  -18.1233   34.0322 C   0  0  0  0  0  0  0  0  0  0  0  0
   38.8319  -19.1818   33.4940 C   0  0  0  0  0  0  0  0  0  0  0  0
   38.5622  -20.4058   33.9519 C   0  0  0  0  0  0  0  0  0  0  0  0
   37.6750  -20.5879   35.0213 C   0  0  0  0  0  0  0  0  0  0  0  0
   37.1027  -19.5136   35.6024 C   0  0  0  0  0  0  0  0  0  0  0  0
   35.7301  -15.7427   36.7232 C   0  0  0  0  0  0  0  0  0  0  0  0
   36.6904  -14.8902   37.1788 C   0  0  0  0  0  0  0  0  0  0  0  0
   36.5443  -13.5106   37.1435 C   0  0  0  0  0  0  0  0  0  0  0  0
   35.4272  -12.9684   36.6201 C   0  0  0  0  0  0  0  0  0  0  0  0
   34.4960  -13.8627   36.1691 C   0  0  0  0  0  0  0  0  0  0  0  0
   34.5366  -15.1595   36.1845 N   0  0  0  0  0  0  0  0  0  0  0  0
   35.9507  -20.7826   37.2380 N   0  0  0  0  0  0  0  0  0  0  0  0
   36.8167  -21.2277   37.7751 H   0  0  0  0  0  0  0  0  0  0  0  0
   32.4388  -22.8815   38.2739 C   0  0  0  0  0  0  0  0  0  0  0  0
   32.3690  -21.7204   37.4550 C   0  0  0  0  0  0  0  0  0  0  0  0
   33.5009  -21.1493   37.0807 C   0  0  0  0  0  0  0  0  0  0  0  0
   34.8077  -21.5593   37.3915 C   0  0  0  0  0  0  0  0  0  0  0  0
   34.8724  -22.6930   38.1857 C   0  0  0  0  0  0  0  0  0  0  0  0
   33.7038  -23.3046   38.5941 C   0  0  0  0  0  0  0  0  0  0  0  0
   30.0999  -22.8089   38.3294 F   0  0  0  0  0  0  0  0  0  0  0  0
   31.2370  -23.4315   38.8913 C   0  0  0  0  0  0  0  0  0  0  0  0
   31.0641  -24.7680   38.5813 F   0  0  0  0  0  0  0  0  0  0  0  0
   31.1541  -23.2027   40.2251 F   0  0  0  0  0  0  0  0  0  0  0  0
 25 26  1  0  0  0
 26 27  1  0  0  0
 26 28  1  0  0  0
 26 19  1  0  0  0
 19 20  2  0  0  0
 20 21  1  0  0  0
 21 22  2  0  0  0
 22 17  1  0  0  0
 17  1  1  0  0  0
  1  2  2  0  0  0
  2  3  1  0  0  0
  3  4  2  0  0  0
  4  5  1  0  0  0
  5  6  2  0  0  0
  6  7  1  0  0  0
  7  8  2  0  0  0
  8  9  1  0  0  0
  9 10  2  0  0  0
  3 11  1  0  0  0
 11 12  2  0  0  0
 12 13  1  0  0  0
 13 14  2  0  0  0
 14 15  1  0  0  0
 15 16  2  0  0  0
 22 23  1  0  0  0
 23 24  2  0  0  0
 24 19  1  0  0  0
 10  1  1  0  0  0
 16 11  1  0  0  0
 10  5  1  0  0  0
 17 18  1  0  0  0
M  END
> <minimizedAffinity>
-5.46672

> <CNNscore>
0.2704057097

> <CNNaffinity>
4.9512233734

> <CNN_VS>
1.3388390541

> <CNNaffinity_variance>
0.0744372308

$$$$
[H]c1nc(-c2nc(N([H])c3c([H])c([H])c(C(F)(F)F)c([H])c3[H])c3c([H])c([H])c([H])c([H])c3n2)c([H])c([H])c1[H]


 28 31  0  0  0  0  0  0  0  0999 V2000
   37.9506  -19.5023   37.2563 C   0  0  0  0  0  0  0  0  0  0  0  0
   38.9461  -18.9123   36.7099 N   0  0  0  0  0  0  0  0  0  0  0  0
   40.0960  -18.7584   36.4524 C   0  0  0  0  0  0  0  0  0  0  0  0
   40.5012  -20.1372   37.3761 N   0  0  0  0  0  0  0  0  0  0  0  0
   39.7640  -20.8337   37.9807 C   0  0  0  0  0  0  0  0  0  0  0  0
   40.2271  -21.9507   38.7058 C   0  0  0  0  0  0  0  0  0  0  0  0
   39.4186  -22.7530   39.3563 C   0  0  0  0  0  0  0  0  0  0  0  0
   38.1007  -22.5440   39.3579 C   0  0  0  0  0  0  0  0  0  0  0  0
   37.5496  -21.4593   38.6625 C   0  0  0  0  0  0  0  0  0  0  0  0
   38.3621  -20.6105   38.0002 C   0  0  0  0  0  0  0  0  0  0  0  0
   41.5130  -18.5846   36.1759 C   0  0  0  0  0  0  0  0  0  0  0  0
   42.4417  -18.1169   37.0563 C   0  0  0  0  0  0  0  0  0  0  0  0
   43.7490  -17.8347   36.6855 C   0  0  0  0  0  0  0  0  0  0  0  0
   44.1457  -18.0469   35.4153 C   0  0  0  0  0  0  0  0  0  0  0  0
   43.1815  -18.5237   34.5707 C   0  0  0  0  0  0  0  0  0  0  0  0
   41.9369  -18.7906   34.8222 N   0  0  0  0  0  0  0  0  0  0  0  0
   36.6051  -19.1826   37.3026 N   0  0  0  0  0  0  0  0  0  0  0  0
   36.3339  -18.3989   38.0434 H   0  0  0  0  0  0  0  0  0  0  0  0
   33.0100  -19.7757   35.1729 C   0  0  0  0  0  0  0  0  0  0  0  0
   34.1648  -19.2735   34.5112 C   0  0  0  0  0  0  0  0  0  0  0  0
   35.2925  -19.1907   35.1960 C   0  0  0  0  0  0  0  0  0  0  0  0
   35.5065  -19.5544   36.5355 C   0  0  0  0  0  0  0  0  0  0  0  0
   34.3809  -20.0473   37.1761 C   0  0  0  0  0  0  0  0  0  0  0  0
   33.1899  -20.1383   36.4837 C   0  0  0  0  0  0  0  0  0  0  0  0
   30.9762  -20.8790   34.8193 F   0  0  0  0  0  0  0  0  0  0  0  0
   31.6963  -19.6949   34.5439 C   0  0  0  0  0  0  0  0  0  0  0  0
   30.9165  -18.7006   35.1058 F   0  0  0  0  0  0  0  0  0  0  0  0
   31.7421  -19.6041   33.1920 F   0  0  0  0  0  0  0  0  0  0  0  0
 25 26  1  0  0  0
 26 27  1  0  0  0
 26 28  1  0  0  0
 26 19  1  0  0  0
 19 20  2  0  0  0
 20 21  1  0  0  0
 21 22  2  0  0  0
 22 17  1  0  0  0
 17  1  1  0  0  0
  1  2  2  0  0  0
  2  3  1  0  0  0
  3  4  2  0  0  0
  4  5  1  0  0  0
  5  6  2  0  0  0
  6  7  1  0  0  0
  7  8  2  0  0  0
  8  9  1  0  0  0
  9 10  2  0  0  0
  3 11  1  0  0  0
 11 12  2  0  0  0
 12 13  1  0  0  0
 13 14  2  0  0  0
 14 15  1  0  0  0
 15 16  2  0  0  0
 22 23  1  0  0  0
 23 24  2  0  0  0
 24 19  1  0  0  0
 10  1  1  0  0  0
 16 11  1  0  0  0
 10  5  1  0  0  0
 17 18  1  0  0  0
M  END
> <minimizedAffinity>
-5.34688

> <CNNscore>
0.2536151111

> <CNNaffinity>
4.6649174690

> <CNN_VS>
1.1830935478

> <CNNaffinity_variance>
0.1893456727

$$$$
[H]c1nc(-c2nc(N([H])c3c([H])c([H])c(C(F)(F)F)c([H])c3[H])c3c([H])c([H])c([H])c([H])c3n2)c([H])c([H])c1[H]


 28 31  0  0  0  0  0  0  0  0999 V2000
   34.0038  -19.4184   36.1052 C   0  0  0  0  0  0  0  0  0  0  0  0
   34.4091  -19.9896   37.1763 N   0  0  0  0  0  0  0  0  0  0  0  0
   34.3034  -20.7037   38.1203 C   0  0  0  0  0  0  0  0  0  0  0  0
   32.7085  -21.1033   37.6565 N   0  0  0  0  0  0  0  0  0  0  0  0
   32.1137  -20.6968   36.7209 C   0  0  0  0  0  0  0  0  0  0  0  0
   30.7942  -21.1097   36.4452 C   0  0  0  0  0  0  0  0  0  0  0  0
   30.1308  -20.6930   35.3932 C   0  0  0  0  0  0  0  0  0  0  0  0
   30.6866  -19.8477   34.5231 C   0  0  0  0  0  0  0  0  0  0  0  0
   31.9955  -19.3851   34.7147 C   0  0  0  0  0  0  0  0  0  0  0  0
   32.6918  -19.7861   35.7980 C   0  0  0  0  0  0  0  0  0  0  0  0
   34.1333  -21.5669   39.2781 C   0  0  0  0  0  0  0  0  0  0  0  0
   34.2470  -22.9246   39.2793 C   0  0  0  0  0  0  0  0  0  0  0  0
   33.9273  -23.7015   40.3840 C   0  0  0  0  0  0  0  0  0  0  0  0
   33.5087  -23.1102   41.5202 C   0  0  0  0  0  0  0  0  0  0  0  0
   33.4177  -21.7464   41.4735 C   0  0  0  0  0  0  0  0  0  0  0  0
   33.6699  -20.9459   40.4841 N   0  0  0  0  0  0  0  0  0  0  0  0
   34.5946  -18.4692   35.2899 N   0  0  0  0  0  0  0  0  0  0  0  0
   34.8712  -18.8289   34.2746 H   0  0  0  0  0  0  0  0  0  0  0  0
   35.1942  -14.4170   36.3059 C   0  0  0  0  0  0  0  0  0  0  0  0
   36.3060  -15.2810   36.1032 C   0  0  0  0  0  0  0  0  0  0  0  0
   36.0725  -16.5171   35.6970 C   0  0  0  0  0  0  0  0  0  0  0  0
   34.8267  -17.1047   35.4229 C   0  0  0  0  0  0  0  0  0  0  0  0
   33.7460  -16.2593   35.6171 C   0  0  0  0  0  0  0  0  0  0  0  0
   33.9637  -14.9653   36.0464 C   0  0  0  0  0  0  0  0  0  0  0  0
   36.6484  -13.0611   37.5410 F   0  0  0  0  0  0  0  0  0  0  0  0
   35.3660  -13.1198   36.9507 C   0  0  0  0  0  0  0  0  0  0  0  0
   35.3817  -12.0861   36.0323 F   0  0  0  0  0  0  0  0  0  0  0  0
   34.4908  -12.8913   37.9606 F   0  0  0  0  0  0  0  0  0  0  0  0
 25 26  1  0  0  0
 26 27  1  0  0  0
 26 28  1  0  0  0
 26 19  1  0  0  0
 19 20  2  0  0  0
 20 21  1  0  0  0
 21 22  2  0  0  0
 22 17  1  0  0  0
 17  1  1  0  0  0
  1  2  2  0  0  0
  2  3  1  0  0  0
  3  4  2  0  0  0
  4  5  1  0  0  0
  5  6  2  0  0  0
  6  7  1  0  0  0
  7  8  2  0  0  0
  8  9  1  0  0  0
  9 10  2  0  0  0
  3 11  1  0  0  0
 11 12  2  0  0  0
 12 13  1  0  0  0
 13 14  2  0  0  0
 14 15  1  0  0  0
 15 16  2  0  0  0
 22 23  1  0  0  0
 23 24  2  0  0  0
 24 19  1  0  0  0
 10  1  1  0  0  0
 16 11  1  0  0  0
 10  5  1  0  0  0
 17 18  1  0  0  0
M  END
> <minimizedAffinity>
-7.45432

> <CNNscore>
0.2520227432

> <CNNaffinity>
4.9406766891

> <CNN_VS>
1.2451628447

> <CNNaffinity_variance>
0.4063138366

$$$$
